 
data_test
 
_audit_creation_method            'SHELXL-2018/3'
_shelx_SHELXL_version_number      '2018/3'
_chemical_name_systematic         ?
_chemical_name_common             ?
_chemical_melting_point           ?
_chemical_formula_moiety          ?
_chemical_formula_sum
 'Ge4 In Rh2 Sm4' 
_chemical_formula_weight          1212.40

loop_
 _atom_type_symbol
 _atom_type_description
 _atom_type_scat_dispersion_real
 _atom_type_scat_dispersion_imag
 _atom_type_scat_source
 'Ge'  'Ge'   0.1547   1.8001
 'International Tables Vol C Tables 4.2.6.8 and 6.1.1.4'
 'Rh'  'Rh'  -1.1178   0.9187
 'International Tables Vol C Tables 4.2.6.8 and 6.1.1.4'
 'In'  'In'  -0.7276   1.3100
 'International Tables Vol C Tables 4.2.6.8 and 6.1.1.4'
 'Sm'  'Sm'  -0.1638   3.4418
 'International Tables Vol C Tables 4.2.6.8 and 6.1.1.4'
 
_space_group_crystal_system       monoclinic
_space_group_IT_number            12
_space_group_name_H-M_alt         'C 2/m'
_space_group_name_Hall            '-C 2y'
 
_shelx_space_group_comment
;
The symmetry employed for this shelxl refinement is uniquely defined
by the following loop, which should always be used as a source of
symmetry information in preference to the above space-group names.
They are only intended as comments.
;
 
loop_
 _space_group_symop_operation_xyz
 'x, y, z'
 '-x, y, -z'
 'x+1/2, y+1/2, z'
 '-x+1/2, y+1/2, -z'
 '-x, -y, -z'
 'x, -y, z'
 '-x+1/2, -y+1/2, -z'
 'x+1/2, -y+1/2, z'
 
_cell_length_a                    15.857(3)
_cell_length_b                    4.3147(8)
_cell_length_c                    7.0971(14)
_cell_angle_alpha                 90
_cell_angle_beta                  106.878(3)
_cell_angle_gamma                 90
_cell_volume                      464.65(16)
_cell_formula_units_Z             2
_cell_measurement_temperature     296(2)
_cell_measurement_reflns_used     ?
_cell_measurement_theta_min       ?
_cell_measurement_theta_max       ?
 
_exptl_crystal_description        ?
_exptl_crystal_colour             ?
_exptl_crystal_density_meas       ?
_exptl_crystal_density_method     ?
_exptl_crystal_density_diffrn     8.666          
_exptl_crystal_F_000              1030
_exptl_transmission_factor_min    ?
_exptl_transmission_factor_max    ?
_exptl_crystal_size_max           0.100
_exptl_crystal_size_mid           0.018
_exptl_crystal_size_min           0.014
_exptl_absorpt_coefficient_mu     43.358
_shelx_estimated_absorpt_T_min    0.098
_shelx_estimated_absorpt_T_max    0.582
_exptl_absorpt_correction_type    ?
_exptl_absorpt_correction_T_min   ?
_exptl_absorpt_correction_T_max   ?
_exptl_absorpt_process_details    ?
_exptl_absorpt_special_details    ?
_diffrn_ambient_temperature       296(2)
_diffrn_radiation_wavelength      0.71073
_diffrn_radiation_type            MoK\a
_diffrn_source                    ?
_diffrn_measurement_device_type   ?
_diffrn_measurement_method        ?
_diffrn_detector_area_resol_mean  ?
_diffrn_reflns_number             3381
_diffrn_reflns_av_unetI/netI      0.0635
_diffrn_reflns_av_R_equivalents   0.0760
_diffrn_reflns_limit_h_min        -24
_diffrn_reflns_limit_h_max        23
_diffrn_reflns_limit_k_min        -6
_diffrn_reflns_limit_k_max        6
_diffrn_reflns_limit_l_min        -10
_diffrn_reflns_limit_l_max        10
_diffrn_reflns_theta_min          2.685
_diffrn_reflns_theta_max          33.233
_diffrn_reflns_theta_full         25.242
_diffrn_measured_fraction_theta_max   0.982
_diffrn_measured_fraction_theta_full  1.000
_diffrn_reflns_Laue_measured_fraction_max    0.982
_diffrn_reflns_Laue_measured_fraction_full   1.000
_diffrn_reflns_point_group_measured_fraction_max   0.982
_diffrn_reflns_point_group_measured_fraction_full  1.000
_reflns_number_total              977
_reflns_number_gt                 813
_reflns_threshold_expression      'I > 2\s(I)'
_reflns_Friedel_coverage          0.000
_reflns_Friedel_fraction_max      .
_reflns_Friedel_fraction_full     .
 
_reflns_special_details
;
 Reflections were merged by SHELXL according to the crystal
 class for the calculation of statistics and refinement.
 
 _reflns_Friedel_fraction is defined as the number of unique
 Friedel pairs measured divided by the number that would be
 possible theoretically, ignoring centric projections and
 systematic absences.
;
 
_computing_data_collection        ?
_computing_cell_refinement        ?
_computing_data_reduction         ?
_computing_structure_solution     ?
_computing_structure_refinement 'SHELXL-2018/3 (Sheldrick, 2018)'
_computing_molecular_graphics     ?
_computing_publication_material   ?
_refine_special_details           ?
_refine_ls_structure_factor_coef  Fsqd
_refine_ls_matrix_type            full
_refine_ls_weighting_scheme       calc
_refine_ls_weighting_details
'w=1/[\s^2^(Fo^2^)+(0.1000P)^2^] where P=(Fo^2^+2Fc^2^)/3'
_atom_sites_solution_primary      ?
_atom_sites_solution_secondary    ?
_atom_sites_solution_hydrogens    .
_refine_ls_hydrogen_treatment     undef
_refine_ls_extinction_method      none
_refine_ls_extinction_coef        .
_refine_ls_number_reflns          977
_refine_ls_number_parameters      17
_refine_ls_number_restraints      0
_refine_ls_R_factor_all           0.0399
_refine_ls_R_factor_gt            0.0333
_refine_ls_wR_factor_ref          0.0919
_refine_ls_wR_factor_gt           0.0867
_refine_ls_goodness_of_fit_ref    0.639
_refine_ls_restrained_S_all       0.639
_refine_ls_shift/su_max           0.026
_refine_ls_shift/su_mean          0.007
 
loop_
 _atom_site_label
 _atom_site_type_symbol
 _atom_site_fract_x
 _atom_site_fract_y
 _atom_site_fract_z
 _atom_site_U_iso_or_equiv
 _atom_site_adp_type
 _atom_site_occupancy
 _atom_site_site_symmetry_order  
 _atom_site_calc_flag
 _atom_site_refinement_flags_posn
 _atom_site_refinement_flags_adp
 _atom_site_refinement_flags_occupancy
 _atom_site_disorder_assembly
 _atom_site_disorder_group
Sm1 Sm 0.08695(3) 0.000000 0.88130(7) 0.00509(14) Uiso 1 2 d S . P . .
Sm2 Sm 0.15357(3) 0.000000 0.43296(7) 0.00554(14) Uiso 1 2 d S . P . .
In3 In 0.000000 -0.500000 0.500000 0.0081(2) Uiso 1 4 d S . P . .
Rh4 Rh 0.28016(5) 0.000000 0.87484(11) 0.00526(16) Uiso 1 2 d S . P . .
Ge5 Ge -0.06472(6) -0.500000 0.84276(14) 0.0052(2) Uiso 1 2 d S . P . .
Ge6 Ge 0.20303(7) -0.500000 0.76097(15) 0.0059(2) Uiso 1 2 d S . P . .
 
_geom_special_details
;
 All esds (except the esd in the dihedral angle between two l.s. planes)
 are estimated using the full covariance matrix.  The cell esds are taken
 into account individually in the estimation of esds in distances, angles
 and torsion angles; correlations between esds in cell parameters are only
 used when they are defined by crystal symmetry.  An approximate (isotropic)
 treatment of cell esds is used for estimating esds involving l.s. planes.
;
 
loop_
 _geom_bond_atom_site_label_1
 _geom_bond_atom_site_label_2
 _geom_bond_distance
 _geom_bond_site_symmetry_2
 _geom_bond_publ_flag
Sm1 Ge5 3.0024(8) 5_557 ?
Sm1 Ge5 3.0024(8) 5_547 ?
Sm1 Rh4 3.0773(11) . ?
Sm1 Ge6 3.1119(9) . ?
Sm1 Ge6 3.1119(9) 1_565 ?
Sm1 Rh4 3.1579(7) 7_557 ?
Sm1 Rh4 3.1579(7) 7_547 ?
Sm1 Ge5 3.1829(9) . ?
Sm1 Ge5 3.1829(9) 1_565 ?
Sm1 In3 3.4222(6) . ?
Sm1 In3 3.4222(6) 1_565 ?
Sm1 Sm1 3.6248(11) 5_557 ?
Sm2 Ge5 2.9778(8) 5_546 ?
Sm2 Ge5 2.9778(8) 5_556 ?
Sm2 Ge6 2.9803(12) 7_546 ?
Sm2 Ge6 3.1029(9) 1_565 ?
Sm2 Ge6 3.1029(9) . ?
Sm2 Rh4 3.1951(10) . ?
Sm2 In3 3.3887(6) . ?
Sm2 In3 3.3887(6) 1_565 ?
Sm2 Rh4 3.4443(8) 7_546 ?
Sm2 Rh4 3.4443(8) 7_556 ?
Sm2 Sm2 3.6362(9) 7_556 ?
In3 Ge5 2.9018(11) . ?
In3 Ge5 2.9018(11) 5_546 ?
Rh4 Ge6 2.4958(7) . ?
Rh4 Ge6 2.4958(7) 1_565 ?
Rh4 Ge6 2.5203(14) 7_547 ?
Rh4 Ge5 2.5352(13) 3 ?
Rh4 Rh4 3.1164(11) 7_557 ?
Rh4 Rh4 3.1164(11) 7_547 ?
Ge5 Ge5 2.556(2) 5_547 ?
 
loop_
 _geom_angle_atom_site_label_1
 _geom_angle_atom_site_label_2
 _geom_angle_atom_site_label_3
 _geom_angle
 _geom_angle_site_symmetry_1
 _geom_angle_site_symmetry_3
 _geom_angle_publ_flag
Ge5 Sm1 Ge5 91.87(3) 5_557 5_547 ?
Ge5 Sm1 Rh4 108.40(2) 5_557 . ?
Ge5 Sm1 Rh4 108.40(2) 5_547 . ?
Ge5 Sm1 Ge6 150.22(3) 5_557 . ?
Ge5 Sm1 Ge6 82.63(2) 5_547 . ?
Rh4 Sm1 Ge6 47.560(18) . . ?
Ge5 Sm1 Ge6 82.63(2) 5_557 1_565 ?
Ge5 Sm1 Ge6 150.22(3) 5_547 1_565 ?
Rh4 Sm1 Ge6 47.560(18) . 1_565 ?
Ge6 Sm1 Ge6 87.78(3) . 1_565 ?
Ge5 Sm1 Rh4 48.52(2) 5_557 7_557 ?
Ge5 Sm1 Rh4 108.63(3) 5_547 7_557 ?
Rh4 Sm1 Rh4 59.96(2) . 7_557 ?
Ge6 Sm1 Rh4 105.68(3) . 7_557 ?
Ge6 Sm1 Rh4 47.40(2) 1_565 7_557 ?
Ge5 Sm1 Rh4 108.63(3) 5_557 7_547 ?
Ge5 Sm1 Rh4 48.52(2) 5_547 7_547 ?
Rh4 Sm1 Rh4 59.96(2) . 7_547 ?
Ge6 Sm1 Rh4 47.40(3) . 7_547 ?
Ge6 Sm1 Rh4 105.68(3) 1_565 7_547 ?
Rh4 Sm1 Rh4 86.18(2) 7_557 7_547 ?
Ge5 Sm1 Ge5 108.31(2) 5_557 . ?
Ge5 Sm1 Ge5 48.71(3) 5_547 . ?
Rh4 Sm1 Ge5 136.835(16) . . ?
Ge6 Sm1 Ge5 89.94(2) . . ?
Ge6 Sm1 Ge5 159.83(3) 1_565 . ?
Rh4 Sm1 Ge5 151.34(3) 7_557 . ?
Rh4 Sm1 Ge5 87.21(2) 7_547 . ?
Ge5 Sm1 Ge5 48.71(3) 5_557 1_565 ?
Ge5 Sm1 Ge5 108.31(2) 5_547 1_565 ?
Rh4 Sm1 Ge5 136.835(16) . 1_565 ?
Ge6 Sm1 Ge5 159.83(3) . 1_565 ?
Ge6 Sm1 Ge5 89.94(2) 1_565 1_565 ?
Rh4 Sm1 Ge5 87.21(2) 7_557 1_565 ?
Rh4 Sm1 Ge5 151.34(3) 7_547 1_565 ?
Ge5 Sm1 Ge5 85.34(3) . 1_565 ?
Ge5 Sm1 In3 150.70(3) 5_557 . ?
Ge5 Sm1 In3 88.06(2) 5_547 . ?
Rh4 Sm1 In3 99.351(17) . . ?
Ge6 Sm1 In3 58.71(2) . . ?
Ge6 Sm1 In3 110.77(2) 1_565 . ?
Rh4 Sm1 In3 156.29(2) 7_557 . ?
Rh4 Sm1 In3 93.109(16) 7_547 . ?
Ge5 Sm1 In3 51.967(19) . . ?
Ge5 Sm1 In3 103.79(2) 1_565 . ?
Ge5 Sm1 In3 88.06(2) 5_557 1_565 ?
Ge5 Sm1 In3 150.70(3) 5_547 1_565 ?
Rh4 Sm1 In3 99.351(16) . 1_565 ?
Ge6 Sm1 In3 110.77(2) . 1_565 ?
Ge6 Sm1 In3 58.71(2) 1_565 1_565 ?
Rh4 Sm1 In3 93.109(16) 7_557 1_565 ?
Rh4 Sm1 In3 156.29(2) 7_547 1_565 ?
Ge5 Sm1 In3 103.79(2) . 1_565 ?
Ge5 Sm1 In3 51.967(19) 1_565 1_565 ?
In3 Sm1 In3 78.158(18) . 1_565 ?
Ge5 Sm1 Sm1 56.47(2) 5_557 5_557 ?
Ge5 Sm1 Sm1 56.47(2) 5_547 5_557 ?
Rh4 Sm1 Sm1 154.41(3) . 5_557 ?
Ge6 Sm1 Sm1 135.882(16) . 5_557 ?
Ge6 Sm1 Sm1 135.882(16) 1_565 5_557 ?
Rh4 Sm1 Sm1 102.82(2) 7_557 5_557 ?
Rh4 Sm1 Sm1 102.82(2) 7_547 5_557 ?
Ge5 Sm1 Sm1 51.844(19) . 5_557 ?
Ge5 Sm1 Sm1 51.844(19) 1_565 5_557 ?
In3 Sm1 Sm1 100.449(18) . 5_557 ?
In3 Sm1 Sm1 100.449(18) 1_565 5_557 ?
Ge5 Sm2 Ge5 92.85(3) 5_546 5_556 ?
Ge5 Sm2 Ge6 88.59(3) 5_546 7_546 ?
Ge5 Sm2 Ge6 88.59(3) 5_556 7_546 ?
Ge5 Sm2 Ge6 164.80(3) 5_546 1_565 ?
Ge5 Sm2 Ge6 87.57(2) 5_556 1_565 ?
Ge6 Sm2 Ge6 106.62(3) 7_546 1_565 ?
Ge5 Sm2 Ge6 87.57(2) 5_546 . ?
Ge5 Sm2 Ge6 164.79(3) 5_556 . ?
Ge6 Sm2 Ge6 106.62(3) 7_546 . ?
Ge6 Sm2 Ge6 88.10(3) 1_565 . ?
Ge5 Sm2 Rh4 133.435(17) 5_546 . ?
Ge5 Sm2 Rh4 133.435(17) 5_556 . ?
Ge6 Sm2 Rh4 96.15(3) 7_546 . ?
Ge6 Sm2 Rh4 46.665(18) 1_565 . ?
Ge6 Sm2 Rh4 46.665(18) . . ?
Ge5 Sm2 In3 53.76(2) 5_546 . ?
Ge5 Sm2 In3 109.35(2) 5_556 . ?
Ge6 Sm2 In3 137.780(12) 7_546 . ?
Ge6 Sm2 In3 111.88(2) 1_565 . ?
Ge6 Sm2 In3 59.16(2) . . ?
Rh4 Sm2 In3 97.728(17) . . ?
Ge5 Sm2 In3 109.35(2) 5_546 1_565 ?
Ge5 Sm2 In3 53.76(2) 5_556 1_565 ?
Ge6 Sm2 In3 137.780(12) 7_546 1_565 ?
Ge6 Sm2 In3 59.16(2) 1_565 1_565 ?
Ge6 Sm2 In3 111.88(2) . 1_565 ?
Rh4 Sm2 In3 97.728(18) . 1_565 ?
In3 Sm2 In3 79.082(18) . 1_565 ?
Ge5 Sm2 Rh4 45.79(2) 5_546 7_546 ?
Ge5 Sm2 Rh4 102.14(3) 5_556 7_546 ?
Ge6 Sm2 Rh4 45.003(15) 7_546 7_546 ?
Ge6 Sm2 Rh4 148.66(3) 1_565 7_546 ?
Ge6 Sm2 Rh4 89.03(2) . 7_546 ?
Rh4 Sm2 Rh4 113.71(2) . 7_546 ?
In3 Sm2 Rh4 93.112(15) . 7_546 ?
In3 Sm2 Rh4 148.41(2) 1_565 7_546 ?
Ge5 Sm2 Rh4 102.14(3) 5_546 7_556 ?
Ge5 Sm2 Rh4 45.79(2) 5_556 7_556 ?
Ge6 Sm2 Rh4 45.003(15) 7_546 7_556 ?
Ge6 Sm2 Rh4 89.03(2) 1_565 7_556 ?
Ge6 Sm2 Rh4 148.66(3) . 7_556 ?
Rh4 Sm2 Rh4 113.71(2) . 7_556 ?
In3 Sm2 Rh4 148.41(2) . 7_556 ?
In3 Sm2 Rh4 93.112(15) 1_565 7_556 ?
Rh4 Sm2 Rh4 77.56(2) 7_546 7_556 ?
Ge5 Sm2 Sm1 111.91(2) 5_546 . ?
Ge5 Sm2 Sm1 111.91(2) 5_556 . ?
Ge6 Sm2 Sm1 149.27(3) 7_546 . ?
Ge6 Sm2 Sm1 54.35(2) 1_565 . ?
Ge6 Sm2 Sm1 54.35(2) . . ?
Rh4 Sm2 Sm1 53.11(2) . . ?
In3 Sm2 Sm1 58.221(10) . . ?
In3 Sm2 Sm1 58.221(10) 1_565 . ?
Rh4 Sm2 Sm1 140.851(12) 7_546 . ?
Rh4 Sm2 Sm1 140.851(12) 7_556 . ?
Ge5 Sm2 Sm2 143.45(3) 5_546 7_556 ?
Ge5 Sm2 Sm2 86.77(2) 5_556 7_556 ?
Ge6 Sm2 Sm2 54.86(2) 7_546 7_556 ?
Ge6 Sm2 Sm2 51.76(2) 1_565 7_556 ?
Ge6 Sm2 Sm2 101.89(3) . 7_556 ?
Rh4 Sm2 Sm2 60.145(17) . 7_556 ?
In3 Sm2 Sm2 157.67(2) . 7_556 ?
In3 Sm2 Sm2 99.764(16) 1_565 7_556 ?
Rh4 Sm2 Sm2 98.59(2) 7_546 7_556 ?
Rh4 Sm2 Sm2 53.565(17) 7_556 7_556 ?
Sm1 Sm2 Sm2 101.957(19) . 7_556 ?
Ge5 In3 Ge5 180.0 . 5_546 ?
Ge5 In3 Sm2 55.864(15) . 5_546 ?
Ge5 In3 Sm2 124.137(15) 5_546 5_546 ?
Ge5 In3 Sm2 55.864(15) . 5_556 ?
Ge5 In3 Sm2 124.137(15) 5_546 5_556 ?
Sm2 In3 Sm2 79.082(18) 5_546 5_556 ?
Ge5 In3 Sm2 124.136(15) . 1_545 ?
Ge5 In3 Sm2 55.863(15) 5_546 1_545 ?
Sm2 In3 Sm2 100.918(18) 5_546 1_545 ?
Sm2 In3 Sm2 180.0 5_556 1_545 ?
Ge5 In3 Sm2 124.136(15) . . ?
Ge5 In3 Sm2 55.864(15) 5_546 . ?
Sm2 In3 Sm2 180.0 5_546 . ?
Sm2 In3 Sm2 100.918(18) 5_556 . ?
Sm2 In3 Sm2 79.082(18) 1_545 . ?
Ge5 In3 Sm1 59.764(18) . . ?
Ge5 In3 Sm1 120.235(19) 5_546 . ?
Sm2 In3 Sm1 115.547(14) 5_546 . ?
Sm2 In3 Sm1 68.198(14) 5_556 . ?
Sm2 In3 Sm1 111.802(14) 1_545 . ?
Sm2 In3 Sm1 64.453(14) . . ?
Ge5 In3 Sm1 120.237(19) . 5_546 ?
Ge5 In3 Sm1 59.764(19) 5_546 5_546 ?
Sm2 In3 Sm1 64.454(14) 5_546 5_546 ?
Sm2 In3 Sm1 111.803(14) 5_556 5_546 ?
Sm2 In3 Sm1 68.197(14) 1_545 5_546 ?
Sm2 In3 Sm1 115.547(14) . 5_546 ?
Sm1 In3 Sm1 180.0 . 5_546 ?
Ge5 In3 Sm1 120.237(19) . 5_556 ?
Ge5 In3 Sm1 59.764(19) 5_546 5_556 ?
Sm2 In3 Sm1 111.803(14) 5_546 5_556 ?
Sm2 In3 Sm1 64.454(14) 5_556 5_556 ?
Sm2 In3 Sm1 115.546(14) 1_545 5_556 ?
Sm2 In3 Sm1 68.197(14) . 5_556 ?
Sm1 In3 Sm1 101.842(18) . 5_556 ?
Sm1 In3 Sm1 78.158(18) 5_546 5_556 ?
Ge5 In3 Sm1 59.763(18) . 1_545 ?
Ge5 In3 Sm1 120.236(19) 5_546 1_545 ?
Sm2 In3 Sm1 68.197(14) 5_546 1_545 ?
Sm2 In3 Sm1 115.546(14) 5_556 1_545 ?
Sm2 In3 Sm1 64.454(14) 1_545 1_545 ?
Sm2 In3 Sm1 111.803(14) . 1_545 ?
Sm1 In3 Sm1 78.158(18) . 1_545 ?
Sm1 In3 Sm1 101.842(18) 5_546 1_545 ?
Sm1 In3 Sm1 180.0 5_556 1_545 ?
Ge6 Rh4 Ge6 119.62(5) . 1_565 ?
Ge6 Rh4 Ge6 103.18(3) . 7_547 ?
Ge6 Rh4 Ge6 103.18(3) 1_565 7_547 ?
Ge6 Rh4 Ge5 111.59(3) . 3 ?
Ge6 Rh4 Ge5 111.59(3) 1_565 3 ?
Ge6 Rh4 Ge5 106.00(4) 7_547 3 ?
Ge6 Rh4 Sm1 66.95(3) . . ?
Ge6 Rh4 Sm1 66.95(3) 1_565 . ?
Ge6 Rh4 Sm1 78.12(3) 7_547 . ?
Ge5 Rh4 Sm1 175.89(4) 3 . ?
Ge6 Rh4 Rh4 125.47(4) . 7_557 ?
Ge6 Rh4 Rh4 51.94(3) 1_565 7_557 ?
Ge6 Rh4 Rh4 51.24(2) 7_547 7_557 ?
Ge5 Rh4 Rh4 121.17(3) 3 7_557 ?
Sm1 Rh4 Rh4 61.30(2) . 7_557 ?
Ge6 Rh4 Rh4 51.94(3) . 7_547 ?
Ge6 Rh4 Rh4 125.47(4) 1_565 7_547 ?
Ge6 Rh4 Rh4 51.24(2) 7_547 7_547 ?
Ge5 Rh4 Rh4 121.17(3) 3 7_547 ?
Sm1 Rh4 Rh4 61.30(2) . 7_547 ?
Rh4 Rh4 Rh4 87.62(4) 7_557 7_547 ?
Ge6 Rh4 Sm1 162.60(3) . 7_557 ?
Ge6 Rh4 Sm1 76.89(3) 1_565 7_557 ?
Ge6 Rh4 Sm1 65.35(2) 7_547 7_557 ?
Ge5 Rh4 Sm1 62.53(2) 3 7_557 ?
Sm1 Rh4 Sm1 120.04(2) . 7_557 ?
Rh4 Rh4 Sm1 58.74(2) 7_557 7_557 ?
Rh4 Rh4 Sm1 115.27(4) 7_547 7_557 ?
Ge6 Rh4 Sm1 76.89(3) . 7_547 ?
Ge6 Rh4 Sm1 162.60(3) 1_565 7_547 ?
Ge6 Rh4 Sm1 65.35(2) 7_547 7_547 ?
Ge5 Rh4 Sm1 62.53(2) 3 7_547 ?
Sm1 Rh4 Sm1 120.04(2) . 7_547 ?
Rh4 Rh4 Sm1 115.27(4) 7_557 7_547 ?
Rh4 Rh4 Sm1 58.74(2) 7_547 7_547 ?
Sm1 Rh4 Sm1 86.18(2) 7_557 7_547 ?
Ge6 Rh4 Sm2 64.72(3) . . ?
Ge6 Rh4 Sm2 64.72(3) 1_565 . ?
Ge6 Rh4 Sm2 148.86(4) 7_547 . ?
Ge5 Rh4 Sm2 105.15(3) 3 . ?
Sm1 Rh4 Sm2 70.74(2) . . ?
Rh4 Rh4 Sm2 110.50(3) 7_557 . ?
Rh4 Rh4 Sm2 110.50(3) 7_547 . ?
Sm1 Rh4 Sm2 131.838(16) 7_557 . ?
Sm1 Rh4 Sm2 131.837(16) 7_547 . ?
Ge6 Rh4 Sm2 57.61(3) . 7_546 ?
Ge6 Rh4 Sm2 123.17(4) 1_565 7_546 ?
Ge6 Rh4 Sm2 133.59(2) 7_547 7_546 ?
Ge5 Rh4 Sm2 57.35(2) 3 7_546 ?
Sm1 Rh4 Sm2 119.86(2) . 7_546 ?
Rh4 Rh4 Sm2 174.75(3) 7_557 7_546 ?
Rh4 Rh4 Sm2 97.389(18) 7_547 7_546 ?
Sm1 Rh4 Sm2 119.84(3) 7_557 7_546 ?
Sm1 Rh4 Sm2 69.009(19) 7_547 7_546 ?
Sm2 Rh4 Sm2 66.29(2) . 7_546 ?
Ge6 Rh4 Sm2 123.17(4) . 7_556 ?
Ge6 Rh4 Sm2 57.61(3) 1_565 7_556 ?
Ge6 Rh4 Sm2 133.59(2) 7_547 7_556 ?
Ge5 Rh4 Sm2 57.35(2) 3 7_556 ?
Sm1 Rh4 Sm2 119.86(2) . 7_556 ?
Rh4 Rh4 Sm2 97.389(18) 7_557 7_556 ?
Rh4 Rh4 Sm2 174.75(3) 7_547 7_556 ?
Sm1 Rh4 Sm2 69.009(19) 7_557 7_556 ?
Sm1 Rh4 Sm2 119.84(3) 7_547 7_556 ?
Sm2 Rh4 Sm2 66.29(2) . 7_556 ?
Sm2 Rh4 Sm2 77.56(2) 7_546 7_556 ?
Rh4 Ge5 Ge5 118.40(6) 3_445 5_547 ?
Rh4 Ge5 In3 131.59(4) 3_445 . ?
Ge5 Ge5 In3 110.01(6) 5_547 . ?
Rh4 Ge5 Sm2 76.86(3) 3_445 5_546 ?
Ge5 Ge5 Sm2 132.886(19) 5_547 5_546 ?
In3 Ge5 Sm2 70.37(2) . 5_546 ?
Rh4 Ge5 Sm2 76.86(3) 3_445 5_556 ?
Ge5 Ge5 Sm2 132.886(19) 5_547 5_556 ?
In3 Ge5 Sm2 70.37(2) . 5_556 ?
Sm2 Ge5 Sm2 92.85(3) 5_546 5_556 ?
Rh4 Ge5 Sm1 68.94(2) 3_445 5_557 ?
Ge5 Ge5 Sm1 69.33(3) 5_547 5_557 ?
In3 Ge5 Sm1 133.147(17) . 5_557 ?
Sm2 Ge5 Sm1 145.74(4) 5_546 5_557 ?
Sm2 Ge5 Sm1 77.60(2) 5_556 5_557 ?
Rh4 Ge5 Sm1 68.94(2) 3_445 5_547 ?
Ge5 Ge5 Sm1 69.33(3) 5_547 5_547 ?
In3 Ge5 Sm1 133.147(17) . 5_547 ?
Sm2 Ge5 Sm1 77.60(2) 5_546 5_547 ?
Sm2 Ge5 Sm1 145.74(4) 5_556 5_547 ?
Sm1 Ge5 Sm1 91.87(3) 5_557 5_547 ?
Rh4 Ge5 Sm1 136.125(18) 3_445 1_545 ?
Ge5 Ge5 Sm1 61.96(3) 5_547 1_545 ?
In3 Ge5 Sm1 68.27(2) . 1_545 ?
Sm2 Ge5 Sm1 76.523(19) 5_546 1_545 ?
Sm2 Ge5 Sm1 138.51(4) 5_556 1_545 ?
Sm1 Ge5 Sm1 131.29(3) 5_557 1_545 ?
Sm1 Ge5 Sm1 71.69(2) 5_547 1_545 ?
Rh4 Ge5 Sm1 136.126(18) 3_445 . ?
Ge5 Ge5 Sm1 61.96(3) 5_547 . ?
In3 Ge5 Sm1 68.27(2) . . ?
Sm2 Ge5 Sm1 138.51(4) 5_546 . ?
Sm2 Ge5 Sm1 76.524(19) 5_556 . ?
Sm1 Ge5 Sm1 71.69(2) 5_557 . ?
Sm1 Ge5 Sm1 131.29(3) 5_547 . ?
Sm1 Ge5 Sm1 85.34(3) 1_545 . ?
Rh4 Ge6 Rh4 119.62(5) . 1_545 ?
Rh4 Ge6 Rh4 76.82(3) . 7_547 ?
Rh4 Ge6 Rh4 76.82(3) 1_545 7_547 ?
Rh4 Ge6 Sm2 77.39(3) . 7_546 ?
Rh4 Ge6 Sm2 77.39(3) 1_545 7_546 ?
Rh4 Ge6 Sm2 127.29(4) 7_547 7_546 ?
Rh4 Ge6 Sm2 68.61(2) . . ?
Rh4 Ge6 Sm2 146.85(4) 1_545 . ?
Rh4 Ge6 Sm2 134.25(2) 7_547 . ?
Sm2 Ge6 Sm2 73.38(3) 7_546 . ?
Rh4 Ge6 Sm2 146.85(4) . 1_545 ?
Rh4 Ge6 Sm2 68.61(2) 1_545 1_545 ?
Rh4 Ge6 Sm2 134.26(2) 7_547 1_545 ?
Sm2 Ge6 Sm2 73.38(3) 7_546 1_545 ?
Sm2 Ge6 Sm2 88.10(3) . 1_545 ?
Rh4 Ge6 Sm1 65.49(2) . . ?
Rh4 Ge6 Sm1 141.60(4) 1_545 . ?
Rh4 Ge6 Sm1 67.26(2) 7_547 . ?
Sm2 Ge6 Sm1 135.899(16) 7_546 . ?
Sm2 Ge6 Sm1 71.525(19) . . ?
Sm2 Ge6 Sm1 130.32(4) 1_545 . ?
Rh4 Ge6 Sm1 141.60(4) . 1_545 ?
Rh4 Ge6 Sm1 65.49(2) 1_545 1_545 ?
Rh4 Ge6 Sm1 67.26(2) 7_547 1_545 ?
Sm2 Ge6 Sm1 135.899(16) 7_546 1_545 ?
Sm2 Ge6 Sm1 130.32(4) . 1_545 ?
Sm2 Ge6 Sm1 71.53(2) 1_545 1_545 ?
Sm1 Ge6 Sm1 87.78(3) . 1_545 ?
 
_refine_diff_density_max    2.960
_refine_diff_density_min   -4.335
_refine_diff_density_rms    0.784

_shelx_res_file
;
TITL 1 in C2/m
    test.res
    created by SHELXL-2018/3 at 18:48:18 on 30-May-2018
CELL 0.71073  15.8567   4.3147   7.0971  90.000 106.878  90.000
ZERR    2.00   0.0031   0.0008   0.0014   0.000   0.003   0.000
LATT  7
SYMM -X, Y, -Z
SFAC GE RH IN SM
UNIT 8 4 2 8
TEMP 23.000
SIZE 0.014 0.018 0.10

L.S. 4

FMAP  2
PLAN  20
ACTA
L.S.  1
WGHT    0.100000
FVAR       0.10365
SM1   4    0.086948    0.000000    0.881300    10.50000    0.00509
SM2   4    0.153573    0.000000    0.432964    10.50000    0.00554
IN3   3    0.000000   -0.500000    0.500000    10.25000    0.00814
RH4   2    0.280158    0.000000    0.874838    10.50000    0.00526
GE5   1   -0.064718   -0.500000    0.842760    10.50000    0.00518
GE6   1    0.203026   -0.500000    0.760966    10.50000    0.00588
HKLF 4




REM  1 in C2/m
REM wR2 = 0.0919, GooF = S = 0.639, Restrained GooF = 0.639 for all data
REM R1 = 0.0333 for 813 Fo > 4sig(Fo) and 0.0399 for all 977 data
REM 17 parameters refined using 0 restraints

END

WGHT      0.0317      0.0000

REM Highest difference peak  2.960,  deepest hole -4.335,  1-sigma level  0.784
Q1    1   0.1307  0.0000  0.9170  10.50000  0.05    2.96
Q2    1   0.2366  0.0000  0.8556  10.50000  0.05    2.61
Q3    1   0.1907  0.0000  0.4558  10.50000  0.05    2.57
Q4    1   0.3236  0.0000  0.9141  10.50000  0.05    2.35
Q5    1   0.2702 -0.6762  0.7561  11.00000  0.05    2.22
Q6    1   0.0483  0.0000  0.8382  10.50000  0.05    2.14
Q7    1   0.0000 -0.5000  1.0000  10.25000  0.05    2.06
Q8    1  -0.0408 -0.5000  0.4645  10.50000  0.05    2.04
Q9    1  -0.0713 -0.3030  0.4892  11.00000  0.05    1.98
Q10   1   0.1064  0.0000  0.3879  10.50000  0.05    1.88
Q11   1   0.1976 -0.8235  0.6629  11.00000  0.05    1.83
Q12   1   0.1595  0.2527  0.9039  11.00000  0.05    1.76
Q13   1   0.1703 -0.5000  0.7300  10.50000  0.05    1.75
Q14   1   0.0918  0.0000  0.7829  10.50000  0.05    1.74
Q15   1   0.2390 -0.5000  0.7908  10.50000  0.05    1.67
Q16   1  -0.1402 -0.2929  0.8118  11.00000  0.05    1.67
Q17   1   0.0903  0.2543  0.4622  11.00000  0.05    1.65
Q18   1   0.0787  0.2244  0.4067  11.00000  0.05    1.64
Q19   1   0.0000 -0.3108  1.0000  10.50000  0.05    1.62
Q20   1   0.2103  0.1642  0.8736  11.00000  0.05    1.60
;
_shelx_res_checksum   14010

_shelx_hkl_file
;
   4  -2 -10  119.90   31.40
   6  -2 -10    3.51    8.74
   8  -2 -10  316.05   48.53
  -1  -1 -10   -2.08   12.51
   1  -1 -10    1.30    8.37
   3  -1 -10   -1.02    6.36
   5  -1 -10  264.42   42.43
   7  -1 -10   12.60    9.14
   9  -1 -10  104.85   27.07
  11  -1 -10   32.50   12.90
  13  -1 -10  111.39   20.94
   0   0 -10   22.53   11.92
   2   0 -10   24.63   11.18
   4   0 -10  154.50   18.75
   6   0 -10    4.88    7.97
  10   0 -10  427.26   31.92
  12   0 -10   40.12   13.18
  14   0 -10   -3.97    7.58
   1   1 -10    2.57    8.82
   3   1 -10    3.69    8.24
   5   1 -10  346.38   28.12
   7   1 -10   11.95    9.41
   9   1 -10   95.19   26.18
  11   1 -10   11.36   14.36
  13   1 -10  109.87   28.62
  15   1 -10    2.88   14.50
   2   2 -10   33.05   19.79
   4   2 -10  128.06   31.06
  -1  -3  -9  515.39   36.80
   1  -3  -9   40.13   11.31
   3  -3  -9   10.02    9.38
   5  -3  -9  114.09   21.18
   7  -3  -9   76.22   17.55
   9  -3  -9   99.05   19.18
  11  -3  -9  413.15   27.10
  13  -3  -9  276.66   44.30
  -4  -2  -9  108.02   20.84
  -2  -2  -9   -0.21    8.18
   0  -2  -9  220.68   22.25
   2  -2  -9  297.47   28.30
   4  -2  -9   42.62   13.25
   6  -2  -9    1.90    6.70
   8  -2  -9   31.73   11.51
  10  -2  -9   53.94   11.83
  12  -2  -9    4.90    6.46
  14  -2  -9    3.09    8.12
  -5  -1  -9   97.42   27.52
  -3  -1  -9   33.86   12.28
  -1  -1  -9  523.70   34.59
   1  -1  -9   62.75   12.08
   3  -1  -9   28.27    8.45
   5  -1  -9  137.56   29.40
   7  -1  -9   54.62   13.56
   9  -1  -9  119.05   15.65
  11  -1  -9  445.14   25.13
  13  -1  -9  349.80   28.91
  15  -1  -9  123.39   21.04
  17  -1  -9    3.09    8.47
  -6   0  -9   49.68   15.01
  -4   0  -9  137.91   31.98
  -2   0  -9    7.72    7.83
   0   0  -9  231.29   26.80
   2   0  -9  352.90   22.36
   4   0  -9   47.85   10.54
   6   0  -9    2.41    5.97
   8   0  -9   61.00   11.34
  10   0  -9   66.02   14.85
  12   0  -9    0.80    6.53
  14   0  -9    3.05    6.29
  16   0  -9 1051.44   40.23
  18   0  -9    1.44   11.37
  -5   1  -9  106.80   16.37
  -3   1  -9   31.85   10.01
  -1   1  -9  645.30   36.66
   1   1  -9   59.43   14.53
   3   1  -9   14.60    8.90
   5   1  -9  145.96   16.69
   7   1  -9   62.21   13.83
   9   1  -9  144.16   19.92
  11   1  -9  529.17   32.77
  13   1  -9  308.78   26.62
  15   1  -9  140.56   22.21
  17   1  -9   -1.54    8.62
  -4   2  -9  174.57   36.57
  -2   2  -9   11.05    9.32
   0   2  -9  294.55   31.20
   2   2  -9  348.10   27.81
   4   2  -9   56.05   14.02
   6   2  -9   -0.50    6.86
  10   2  -9   39.10   17.15
  12   2  -9    4.85    7.63
  14   2  -9   -3.50    7.34
  16   2  -9  898.32   67.72
   1   3  -9   48.98   14.96
   3   3  -9   24.47   11.51
   5   3  -9  120.52   29.93
   7   3  -9   59.15   15.81
   9   3  -9   72.93   24.10
  11   3  -9  321.83   34.65
   0  -4  -8  119.46   17.22
   2  -4  -8   86.83   18.55
   4  -4  -8  165.23   23.25
   6  -4  -8  142.11   23.12
   8  -4  -8   18.75   10.78
  10  -4  -8  295.22   32.87
  -5  -3  -8  178.45   25.89
  -3  -3  -8   58.16   22.57
  -1  -3  -8    2.68    6.22
   1  -3  -8   13.25    7.45
   3  -3  -8  140.61   16.94
   5  -3  -8  755.95   40.46
   7  -3  -8  177.90   23.60
   9  -3  -8   -0.31    5.36
  11  -3  -8  167.31   19.37
  13  -3  -8    1.54    5.84
  15  -3  -8    5.84    8.89
  -8  -2  -8   -7.62   10.94
  -6  -2  -8  327.10   30.94
  -4  -2  -8   67.35   15.63
  -2  -2  -8   50.29   10.83
   0  -2  -8  161.70   22.01
   2  -2  -8  137.07   16.20
   4  -2  -8  230.48   20.36
   6  -2  -8  152.83   20.61
   8  -2  -8   39.35    9.40
  10  -2  -8  429.58   24.03
  12  -2  -8   18.76    7.80
  14  -2  -8   61.36   15.06
  16  -2  -8    6.20    8.39
  18  -2  -8   20.54   11.29
  -9  -1  -8   11.13   10.02
  -7  -1  -8   28.68   11.55
  -5  -1  -8  222.74   26.78
  -3  -1  -8  113.22   18.67
  -1  -1  -8    3.69    5.08
   1  -1  -8   15.05    6.53
   3  -1  -8  183.83   17.72
   5  -1  -8  932.88   34.59
   7  -1  -8  255.95   19.56
   9  -1  -8    0.28    4.32
  11  -1  -8  230.52   18.66
  13  -1  -8    4.37    6.20
  15  -1  -8   -2.71    5.68
  17  -1  -8   34.93   12.29
  19  -1  -8  628.86   40.56
 -10   0  -8  702.75   42.45
  -8   0  -8    1.45    6.39
  -6   0  -8  404.35   24.61
  -4   0  -8   64.24   11.83
  -2   0  -8   74.60   11.87
   0   0  -8  174.94   21.40
   2   0  -8  162.03   16.26
   4   0  -8  290.40   17.94
   6   0  -8  210.06   14.84
   8   0  -8   37.64    8.40
  10   0  -8  495.68   25.46
  12   0  -8   25.91    7.99
  14   0  -8   76.44   12.61
  16   0  -8   22.10    8.10
  18   0  -8    8.35    8.47
  20   0  -8    9.18    9.74
  -9   1  -8    9.58    9.34
  -7   1  -8   30.48   11.65
  -5   1  -8  263.25   21.71
  -3   1  -8  134.51   16.61
  -1   1  -8    4.14    4.98
   1   1  -8   10.07    5.88
   3   1  -8  206.75   17.02
   5   1  -8 1007.97   35.91
   7   1  -8  243.94   13.23
   9   1  -8   -3.78    3.63
  11   1  -8  206.86   18.54
  13   1  -8   -3.92    5.06
  15   1  -8    2.99    6.75
  17   1  -8   18.76    9.74
  19   1  -8  678.07   41.41
  -8   2  -8   -3.34   11.21
  -6   2  -8  299.01   29.58
  -4   2  -8   54.74   14.26
  -2   2  -8   54.71   13.68
   0   2  -8  180.03   22.80
   2   2  -8  144.20   19.64
   4   2  -8  273.11   18.20
   6   2  -8  201.91   18.47
   8   2  -8   36.54    8.47
  10   2  -8  455.63   30.60
  12   2  -8   19.71    8.84
  14   2  -8   48.75   12.35
  16   2  -8   11.96    9.09
  18   2  -8   17.48   10.50
  -5   3  -8  182.70   26.69
  -3   3  -8   99.37   19.00
  -1   3  -8    1.45    6.27
   1   3  -8   15.28    7.60
   3   3  -8  184.78   19.67
   5   3  -8  789.31   57.19
   7   3  -8  193.43   23.44
   9   3  -8    0.40    6.67
  11   3  -8  121.09   21.44
  13   3  -8    4.02    7.61
  15   3  -8   -1.01    7.50
  -2   4  -8   17.67   17.75
   0   4  -8  126.50   31.96
   2   4  -8  104.73   20.27
   4   4  -8  193.70   26.68
   6   4  -8  136.68   21.90
   8   4  -8   29.26   11.41
  10   4  -8  225.52   28.29
   1  -5  -7  142.21   34.73
  -6  -4  -7   16.22   16.89
  -4  -4  -7  238.47   29.05
  -2  -4  -7  179.34   24.89
   0  -4  -7  283.87   24.57
   2  -4  -7   58.94   11.84
   4  -4  -7   13.17    8.81
   6  -4  -7   38.19   12.67
   8  -4  -7  104.78   19.25
  10  -4  -7  583.96   37.20
  12  -4  -7   70.92   13.99
  14  -4  -7  116.48   17.38
  -7  -3  -7  361.83   31.83
  -5  -3  -7    2.97    7.37
  -3  -3  -7  132.17   16.74
  -1  -3  -7    5.83    5.78
   1  -3  -7  244.41   19.76
   3  -3  -7    4.29    5.33
   5  -3  -7    6.13    6.25
   7  -3  -7   34.64   10.96
   9  -3  -7   38.16    9.32
  11  -3  -7   34.33    9.18
  13  -3  -7  362.59   22.96
  15  -3  -7  154.45   23.13
  17  -3  -7  339.09   31.85
 -10  -2  -7    4.48    8.86
  -8  -2  -7    4.38    8.02
  -6  -2  -7    8.77    7.74
  -4  -2  -7  308.05   24.86
  -2  -2  -7  295.13   19.09
   0  -2  -7  359.43   20.78
   2  -2  -7   70.87   10.92
   4  -2  -7   18.83    6.46
   6  -2  -7   47.53    9.34
   8  -2  -7  158.65   16.20
  10  -2  -7  809.65   30.32
  12  -2  -7  115.72   14.56
  14  -2  -7  187.43   23.35
  16  -2  -7   37.19   11.92
  18  -2  -7   25.08   10.97
  20  -2  -7   71.40   17.47
 -11  -1  -7  118.35   16.60
  -9  -1  -7   -1.99    5.24
  -7  -1  -7  543.17   26.71
  -5  -1  -7    7.47    5.45
  -3  -1  -7  214.02   17.82
  -1  -1  -7   28.64    7.65
   1  -1  -7  290.19   17.40
   3  -1  -7    2.74    3.68
   5  -1  -7    5.22    3.58
   7  -1  -7   54.86    9.43
   9  -1  -7   44.63    8.72
  11  -1  -7   55.60    9.49
  13  -1  -7  454.99   23.47
  15  -1  -7  165.27   17.49
  17  -1  -7  465.50   25.92
  19  -1  -7    9.25    7.15
  21  -1  -7   -1.78    6.42
 -12   0  -7    6.80    8.88
 -10   0  -7    7.43    6.49
  -8   0  -7   -2.39    4.80
  -6   0  -7   16.93    6.94
  -4   0  -7  417.23   23.56
  -2   0  -7  331.53   21.77
   0   0  -7  433.50   19.81
   2   0  -7   97.14    9.82
   4   0  -7   18.20    5.00
   6   0  -7   50.41    7.22
   8   0  -7  206.40   12.70
  10   0  -7 1033.11   34.80
  12   0  -7  150.85   15.16
  14   0  -7  196.09   18.24
  16   0  -7   50.06   10.16
  18   0  -7   15.40    6.90
  20   0  -7   68.83   16.43
 -11   1  -7  109.83   20.14
  -9   1  -7    1.57    6.84
  -7   1  -7  489.55   26.20
  -5   1  -7    0.94    4.51
  -3   1  -7  180.79   17.29
  -1   1  -7   25.50    7.11
   1   1  -7  331.80   18.07
   3   1  -7    8.06    3.54
   5   1  -7    3.41    2.35
   7   1  -7   58.84    5.33
   9   1  -7   37.01    5.63
  11   1  -7   54.18    8.78
  13   1  -7  447.11   25.32
  15   1  -7  174.76   22.11
  17   1  -7  434.94   30.62
  19   1  -7   14.79    9.74
  21   1  -7   10.19    9.58
 -10   2  -7   -0.31    8.07
  -8   2  -7    2.04    7.32
  -6   2  -7   26.85   10.70
  -4   2  -7  391.02   30.49
  -2   2  -7  394.08   24.45
   0   2  -7  449.21   23.59
   2   2  -7   99.02   12.46
   4   2  -7   17.16    4.81
   6   2  -7   36.01    6.22
   8   2  -7  182.39   14.72
  10   2  -7  801.22   35.86
  12   2  -7  107.27   14.70
  14   2  -7  167.22   19.41
  16   2  -7   40.04    9.62
  18   2  -7   11.60    7.01
  20   2  -7   54.24   12.21
  -9   3  -7    4.16   13.80
  -7   3  -7  428.73   30.89
  -5   3  -7    4.74    6.06
  -3   3  -7  144.95   17.09
  -1   3  -7   15.78    7.03
   1   3  -7  274.47   20.03
   3   3  -7    6.73    6.95
   5   3  -7    1.89    4.68
   7   3  -7   34.84    8.59
   9   3  -7   43.78    9.54
  11   3  -7   27.70    8.29
  13   3  -7  292.54   34.23
  15   3  -7   91.41   17.03
  17   3  -7  311.52   35.80
  -6   4  -7    4.07   15.07
  -4   4  -7  305.12   33.46
  -2   4  -7  271.76   30.86
   0   4  -7  266.81   29.95
   2   4  -7   46.21   13.77
   4   4  -7   10.25    6.62
   6   4  -7   27.59    9.20
   8   4  -7   88.63   17.68
  10   4  -7  367.77   41.34
  12   4  -7   63.37   15.88
  14   4  -7  108.35   19.10
   5   5  -7  -10.08   11.06
   7   5  -7   29.42   18.12
  -3  -5  -6    1.37    9.27
  -1  -5  -6  381.34   33.12
   1  -5  -6   12.52   10.03
   3  -5  -6    1.71   10.73
   5  -5  -6  343.60   42.53
   7  -5  -6  259.05   43.04
   9  -5  -6   68.28   16.10
  11  -5  -6   25.71   17.45
  -8  -4  -6   48.92   21.68
  -6  -4  -6   -2.16    6.93
  -4  -4  -6   32.28   11.95
  -2  -4  -6  149.37   21.47
   0  -4  -6   30.38    8.60
   2  -4  -6  123.13   14.96
   4  -4  -6  687.23   31.77
   6  -4  -6  196.08   23.65
   8  -4  -6   21.28    9.45
  10  -4  -6   65.80   12.09
  12  -4  -6  204.96   20.73
  14  -4  -6    9.86    8.90
  16  -4  -6  320.48   31.05
 -11  -3  -6   27.89   17.86
  -9  -3  -6  354.65   41.94
  -7  -3  -6    0.38    6.20
  -5  -3  -6  114.57   18.12
  -3  -3  -6    8.15    5.47
  -1  -3  -6  595.73   31.51
   1  -3  -6   16.27    6.16
   3  -3  -6    5.06    4.59
   5  -3  -6  475.64   25.95
   7  -3  -6  418.30   21.64
   9  -3  -6  112.67   13.95
  11  -3  -6   31.99    8.25
  13  -3  -6  384.81   22.37
  15  -3  -6  110.28   15.05
  17  -3  -6   -0.34    6.51
  19  -3  -6   39.04   13.63
 -14  -2  -6   19.70   16.92
 -12  -2  -6  120.54   20.78
 -10  -2  -6  173.50   18.72
  -8  -2  -6   64.11   11.44
  -6  -2  -6    0.43    4.45
  -4  -2  -6   50.75    9.97
  -2  -2  -6  254.48   16.29
   0  -2  -6   70.25   10.32
   2  -2  -6  176.83   14.54
   4  -2  -6 1007.10   42.57
   6  -2  -6  282.02   15.69
   8  -2  -6   43.91    8.42
  10  -2  -6  106.24   12.86
  12  -2  -6  318.92   18.76
  14  -2  -6   25.27    7.24
  16  -2  -6  467.68   30.75
  18  -2  -6  183.59   24.24
  20  -2  -6  711.49   41.63
 -13  -1  -6  197.59   26.04
 -11  -1  -6   50.23   10.71
  -9  -1  -6  611.54   33.76
  -7  -1  -6    2.73    4.55
  -5  -1  -6  171.77   14.68
  -3  -1  -6   14.17    4.83
  -1  -1  -6  864.94   34.98
   1  -1  -6   35.20    5.70
   3  -1  -6   10.88    4.70
   5  -1  -6  715.93   21.84
   7  -1  -6  541.28   17.54
   9  -1  -6  151.00   13.88
  11  -1  -6   45.07    7.15
  13  -1  -6  538.13   23.92
  15  -1  -6  155.60   16.26
  17  -1  -6    3.17    4.51
  19  -1  -6   29.84    8.75
  21  -1  -6  322.31   24.22
  23  -1  -6   27.64   18.10
 -14   0  -6   18.12   10.21
 -12   0  -6  139.23   17.28
 -10   0  -6  206.31   19.46
  -8   0  -6   87.42   12.47
  -6   0  -6    2.62    4.36
  -4   0  -6   72.52   10.42
  -2   0  -6  309.35   17.76
   0   0  -6   88.39    9.03
   2   0  -6  232.85   12.24
   4   0  -6 1379.02   25.96
   6   0  -6  397.76   13.10
   8   0  -6   48.41    5.77
  10   0  -6  125.62   10.57
  12   0  -6  378.61   18.88
  14   0  -6   26.06    6.88
  16   0  -6  550.47   25.14
  18   0  -6  188.75   18.56
  20   0  -6  583.95   36.34
  22   0  -6    8.25    8.75
 -15   1  -6   64.62   23.10
 -13   1  -6  221.60   27.19
 -11   1  -6   40.83   12.33
  -9   1  -6  662.90   42.66
  -7   1  -6    0.38    4.18
  -5   1  -6  154.52   15.62
  -3   1  -6   16.14    4.88
  -1   1  -6  844.16   31.21
   1   1  -6   27.83    5.37
   3   1  -6   10.71    2.58
   5   1  -6  786.26   22.62
   7   1  -6  621.47   19.51
   9   1  -6  141.47   11.62
  11   1  -6   33.49    6.12
  13   1  -6  524.06   21.57
  15   1  -6  120.91   15.73
  17   1  -6    6.60    6.95
  19   1  -6   38.47   12.42
  21   1  -6  310.33   32.92
 -14   2  -6   18.38   16.38
 -12   2  -6  110.07   20.20
 -10   2  -6  142.66   21.01
  -8   2  -6   91.86   13.98
  -6   2  -6    3.95    4.75
  -4   2  -6   64.29   10.05
  -2   2  -6  296.32   17.39
   0   2  -6   69.17   10.07
   2   2  -6  197.77   12.17
   4   2  -6 1202.09   26.20
   6   2  -6  330.39   11.14
   8   2  -6   42.43    5.97
  10   2  -6   95.62   10.14
  12   2  -6  280.59   24.23
  14   2  -6   14.21    5.83
  16   2  -6  461.27   34.42
  18   2  -6  151.96   17.92
  20   2  -6  554.05   32.94
 -11   3  -6   32.54   10.67
  -9   3  -6  516.48   39.61
  -7   3  -6   -2.96    4.73
  -5   3  -6  142.14   16.56
  -3   3  -6    8.10    5.45
  -1   3  -6  649.03   27.34
   1   3  -6   19.33    5.59
   3   3  -6   17.02    6.03
   5   3  -6  539.09   26.38
   7   3  -6  468.84   21.22
   9   3  -6   94.85   12.39
  11   3  -6   28.63    7.97
  13   3  -6  345.85   33.07
  15   3  -6   62.12   13.91
  17   3  -6    0.83    6.61
  19   3  -6   14.94    9.92
  -8   4  -6   38.25   13.99
  -6   4  -6    3.69    7.95
  -4   4  -6   40.77   12.60
  -2   4  -6  165.70   22.78
   0   4  -6   52.15   13.34
   2   4  -6  111.44   14.80
   4   4  -6  682.44   31.65
   6   4  -6  193.54   19.12
   8   4  -6   25.42   10.03
  10   4  -6   56.83   11.19
  12   4  -6  147.33   17.79
  14   4  -6    7.15    8.00
  16   4  -6  247.72   29.03
  -1   5  -6  372.48   32.01
   1   5  -6    4.80    8.99
   3   5  -6    6.40    6.93
   7   5  -6  188.81   25.74
   9   5  -6   52.50   15.34
  -5  -5  -5  128.75   21.43
  -3  -5  -5   38.44   13.41
  -1  -5  -5  413.34   31.00
   1  -5  -5  327.69   27.46
   3  -5  -5   11.33    8.45
   5  -5  -5  174.40   34.63
   7  -5  -5  197.09   37.15
   9  -5  -5   16.85    9.89
  11  -5  -5  303.99   32.86
  13  -5  -5    0.77    8.86
 -10  -4  -5   10.46   13.21
  -8  -4  -5   95.03   26.48
  -6  -4  -5  641.75   36.16
  -4  -4  -5   37.24   11.46
  -2  -4  -5  128.40   18.55
   0  -4  -5   98.83   13.19
   2  -4  -5    2.05    4.55
   4  -4  -5   11.92    5.90
   6  -4  -5   47.27   11.98
   8  -4  -5  117.22   14.07
  10  -4  -5  598.16   34.16
  12  -4  -5   41.57   12.22
  14  -4  -5  148.47   21.97
  16  -4  -5   12.00    9.49
 -13  -3  -5  103.84   20.07
 -11  -3  -5   11.23    8.65
  -9  -3  -5   64.15   11.53
  -7  -3  -5  102.23   13.10
  -5  -3  -5  236.91   17.65
  -3  -3  -5   77.05   10.96
  -1  -3  -5  796.62   30.97
   1  -3  -5  626.50   26.31
   3  -3  -5   10.13    4.93
   5  -3  -5  390.85   16.22
   7  -3  -5  416.06   20.20
   9  -3  -5   30.88    7.50
  11  -3  -5  454.48   22.24
  13  -3  -5   -0.58    4.14
  15  -3  -5  410.62   22.81
  17  -3  -5    3.74    7.43
  19  -3  -5   92.51   18.35
  21  -3  -5   15.59   15.03
 -16  -2  -5    3.85   15.11
 -14  -2  -5  317.84   29.46
 -12  -2  -5   45.59   12.95
 -10  -2  -5   56.52   10.49
  -8  -2  -5  222.55   17.42
  -6  -2  -5  925.14   42.35
  -4  -2  -5   70.84    8.39
  -2  -2  -5  199.93   11.33
   0  -2  -5  143.60   12.32
   2  -2  -5   -1.05    2.99
   4  -2  -5   24.15    4.93
   6  -2  -5   77.43    7.98
   8  -2  -5  163.78   13.53
  10  -2  -5  922.19   28.36
  12  -2  -5   79.61   10.70
  14  -2  -5  231.05   16.39
  16  -2  -5   34.47   10.63
  18  -2  -5  115.48   18.91
  20  -2  -5   14.69    9.37
  22  -2  -5  175.47   25.93
 -17  -1  -5  104.97   28.25
 -15  -1  -5  251.33   29.03
 -13  -1  -5  156.63   22.23
 -11  -1  -5    7.24    5.64
  -9  -1  -5   95.78   12.39
  -7  -1  -5  131.76   13.52
  -5  -1  -5  281.17   15.57
  -3  -1  -5  115.40    9.77
  -1  -1  -5 1033.04   33.17
   1  -1  -5  923.38   32.21
   3  -1  -5   22.63    3.52
   5  -1  -5  569.28   19.50
   7  -1  -5  562.41   15.54
   9  -1  -5   39.59    6.18
  11  -1  -5  554.55   18.06
  13  -1  -5    5.50    3.27
  15  -1  -5  533.81   25.53
  17  -1  -5    5.92    4.98
  19  -1  -5  119.18   15.00
  21  -1  -5   18.14    8.13
  23  -1  -5   42.87   11.65
 -16   0  -5    3.96    8.42
 -14   0  -5  381.89   29.07
 -12   0  -5   50.49   10.18
 -10   0  -5   67.21   10.83
  -8   0  -5  289.43   17.14
  -6   0  -5 1147.51   43.51
  -4   0  -5   81.06    9.72
  -2   0  -5  264.07   12.70
   0   0  -5  184.63    8.05
   2   0  -5    1.73    1.75
   4   0  -5   43.04    3.97
   6   0  -5  106.56    6.18
   8   0  -5  214.52    9.34
  10   0  -5  992.20   35.85
  12   0  -5   86.57   10.40
  14   0  -5  243.15   15.33
  16   0  -5   43.87    8.73
  18   0  -5  115.61   14.15
  20   0  -5   18.35    7.51
  22   0  -5  200.34   26.20
 -15   1  -5  255.04   28.88
 -13   1  -5  138.66   20.61
 -11   1  -5   10.29    7.31
  -9   1  -5   97.39   12.23
  -7   1  -5  142.26   12.06
  -5   1  -5  297.49   16.74
  -3   1  -5  123.10    9.50
  -1   1  -5  876.43   32.62
   1   1  -5  874.08   31.80
   3   1  -5   17.75    2.71
   5   1  -5  605.11   17.27
   7   1  -5  577.97   17.91
   9   1  -5   26.62    4.23
  11   1  -5  575.38   26.61
  13   1  -5    1.62    2.88
  15   1  -5  440.76   30.31
  17   1  -5    8.84    5.24
  19   1  -5  102.58   17.98
  21   1  -5   23.03   10.44
  23   1  -5   33.27   12.82
 -14   2  -5  315.78   24.30
 -12   2  -5   37.63    9.83
 -10   2  -5   48.49   10.01
  -8   2  -5  248.93   22.15
  -6   2  -5 1164.61   52.85
  -4   2  -5   79.81   10.41
  -2   2  -5  249.17   16.62
   0   2  -5  149.75   10.06
   2   2  -5   -0.53    1.96
   4   2  -5   29.29    4.10
   6   2  -5   82.37    6.44
   8   2  -5  162.48   11.76
  10   2  -5  837.54   31.48
  12   2  -5   65.61   10.03
  14   2  -5  178.79   18.54
  16   2  -5   20.16    6.91
  18   2  -5   75.95   12.49
  20   2  -5   12.90    7.42
  22   2  -5  144.69   24.00
 -13   3  -5  106.03   16.28
 -11   3  -5    4.92    6.11
  -9   3  -5   61.27   11.45
  -7   3  -5  112.31   14.33
  -5   3  -5  248.20   17.87
  -3   3  -5   94.29   12.18
  -1   3  -5  779.73   23.65
   1   3  -5  661.64   26.85
   3   3  -5    4.77    4.00
   5   3  -5  380.94   15.95
   7   3  -5  373.65   19.87
   9   3  -5   12.41    5.20
  11   3  -5  352.18   24.14
  13   3  -5    1.34    5.11
  15   3  -5  310.09   27.20
  17   3  -5    4.13    6.94
  19   3  -5   57.71   15.35
 -10   4  -5   37.04   13.66
  -8   4  -5  160.45   23.17
  -6   4  -5  737.87   39.94
  -4   4  -5   44.48   12.35
  -2   4  -5  150.02   15.88
   0   4  -5  100.87   13.63
   2   4  -5   -2.35    4.01
   4   4  -5   15.07    6.13
   6   4  -5   47.93   11.99
   8   4  -5   79.51   12.02
  10   4  -5  454.92   29.32
  12   4  -5   31.21    8.64
  14   4  -5   94.40   17.84
  16   4  -5   16.68   10.42
  -5   5  -5  131.08   22.72
  -3   5  -5   59.25   15.49
  -1   5  -5  433.51   25.65
   1   5  -5  325.73   22.38
   3   5  -5   11.34    6.91
   5   5  -5  190.07   24.95
   7   5  -5  187.77   25.16
   9   5  -5    4.09    7.81
  11   5  -5  218.50   27.31
  13   5  -5    5.49   13.27
  -2  -6  -4  120.60   31.82
   0  -6  -4  128.11   22.59
   2  -6  -4   90.76   19.74
  -7  -5  -4    3.56   12.52
  -5  -5  -4   22.62   11.04
  -3  -5  -4    4.07    7.89
  -1  -5  -4    1.03    7.22
   1  -5  -4  355.05   27.21
   3  -5  -4   -2.98    6.40
   5  -5  -4  284.29   24.42
   7  -5  -4   21.89   14.32
   9  -5  -4   75.64   16.19
  11  -5  -4  184.05   24.35
  13  -5  -4   18.04   10.52
  15  -5  -4  173.17   37.13
 -14  -4  -4    9.93   15.07
 -12  -4  -4  229.15   28.13
 -10  -4  -4    8.10   11.39
  -8  -4  -4  200.05   35.90
  -6  -4  -4  202.70   23.20
  -4  -4  -4   58.47   12.96
  -2  -4  -4  206.16   22.60
   0  -4  -4  223.08   21.21
   2  -4  -4  273.01   16.62
   4  -4  -4   85.65   11.49
   6  -4  -4  702.36   26.24
   8  -4  -4   10.51    7.06
  10  -4  -4   95.79   16.29
  12  -4  -4   25.57    9.49
  14  -4  -4  240.98   26.97
  16  -4  -4  159.53   23.31
  18  -4  -4   66.03   23.95
 -15  -3  -4   56.79   15.86
 -13  -3  -4   -4.85    6.04
 -11  -3  -4  512.96   33.70
  -9  -3  -4   12.30    7.32
  -7  -3  -4   -0.53    4.03
  -5  -3  -4   95.26    9.78
  -3  -3  -4   -0.45    2.83
  -1  -3  -4   -0.52    3.26
   1  -3  -4  683.73   23.18
   3  -3  -4    0.24    2.99
   5  -3  -4  571.92   18.09
   7  -3  -4   63.02    7.57
   9  -3  -4  161.43   14.79
  11  -3  -4  347.86   18.60
  13  -3  -4   38.62    8.58
  15  -3  -4  262.37   18.74
  17  -3  -4  487.45   31.61
  19  -3  -4  148.73   21.92
 -16  -2  -4  299.66   29.21
 -14  -2  -4   10.61    8.44
 -12  -2  -4  373.24   30.36
 -10  -2  -4   12.24    5.83
  -8  -2  -4  308.24   16.95
  -6  -2  -4  326.61   16.77
  -4  -2  -4   99.32    9.06
  -2  -2  -4  301.48   12.62
   0  -2  -4  389.24   13.14
   2  -2  -4  458.30   16.98
   4  -2  -4  150.49    8.72
   6  -2  -4 1249.48   32.73
   8  -2  -4   14.84    4.89
  10  -2  -4  188.15   12.61
  12  -2  -4   36.75    7.41
  14  -2  -4  345.09   18.13
  16  -2  -4  200.08   18.49
  18  -2  -4   73.78   11.46
  20  -2  -4   45.63   13.59
  22  -2  -4  197.23   26.92
 -17  -1  -4   20.69   15.85
 -15  -1  -4   76.71   15.95
 -13  -1  -4    2.29    5.60
 -11  -1  -4  768.01   31.18
  -9  -1  -4    4.82    4.28
  -7  -1  -4    1.53    3.33
  -5  -1  -4  139.32   11.38
  -3  -1  -4    2.49    2.34
  -1  -1  -4    5.32    2.61
   1  -1  -4  993.64   28.84
   3  -1  -4    1.00    1.55
   5  -1  -4  860.10   36.05
   7  -1  -4   78.82    5.59
   9  -1  -4  235.46   10.77
  11  -1  -4  522.96   17.53
  13  -1  -4   54.99    7.10
  15  -1  -4  323.91   17.91
  17  -1  -4  604.20   29.22
  19  -1  -4  172.38   17.63
  21  -1  -4  421.64   24.64
  23  -1  -4   14.80   10.35
 -18   0  -4   13.72   14.06
 -16   0  -4  354.49   27.43
 -14   0  -4    6.37    6.81
 -12   0  -4  449.51   28.39
 -10   0  -4   30.49    5.89
  -8   0  -4  448.38   16.90
  -6   0  -4  456.35   19.66
  -4   0  -4  127.78    8.38
  -2   0  -4  407.53   14.98
   0   0  -4  535.14   18.16
   2   0  -4  599.19   13.90
   4   0  -4  204.03    6.86
   6   0  -4 1443.14   39.76
   8   0  -4   15.32    2.55
  10   0  -4  201.25   10.26
  12   0  -4   46.91    7.66
  14   0  -4  366.84   17.75
  16   0  -4  231.84   16.07
  18   0  -4  101.00   13.16
  20   0  -4   74.39   12.26
  22   0  -4  239.70   27.92
 -17   1  -4   19.66   15.35
 -15   1  -4   83.32   12.97
 -13   1  -4    2.65    4.66
 -11   1  -4  744.65   36.61
  -9   1  -4    9.25    4.64
  -7   1  -4    2.90    3.60
  -5   1  -4  144.31   10.05
  -3   1  -4    1.43    1.72
  -1   1  -4    1.64    1.78
   1   1  -4  995.58   22.75
   3   1  -4    1.37    1.28
   5   1  -4  844.81   20.03
   7   1  -4   78.06    5.42
   9   1  -4  203.06   10.81
  11   1  -4  482.52   22.47
  13   1  -4   56.30    7.65
  15   1  -4  318.81   17.33
  17   1  -4  573.04   29.71
  19   1  -4  154.89   21.19
  21   1  -4  443.05   31.79
  23   1  -4    5.67    9.18
 -16   2  -4  316.87   29.74
 -14   2  -4   12.89    6.72
 -12   2  -4  394.97   25.00
 -10   2  -4   22.19    6.88
  -8   2  -4  354.17   25.64
  -6   2  -4  403.23   22.21
  -4   2  -4  102.35    8.21
  -2   2  -4  337.86   12.86
   0   2  -4  399.98   11.07
   2   2  -4  487.36   11.24
   4   2  -4  175.21    7.94
   6   2  -4 1178.28   22.61
   8   2  -4   13.12    3.87
  10   2  -4  153.38   10.98
  12   2  -4   30.70    6.97
  14   2  -4  249.47   19.78
  16   2  -4  190.83   20.11
  18   2  -4   63.76   10.98
  20   2  -4   39.53    9.99
  22   2  -4  215.15   27.77
 -15   3  -4   59.15   15.86
 -13   3  -4   -2.60    5.32
 -11   3  -4  606.71   31.98
  -9   3  -4    7.23    5.41
  -7   3  -4    3.11    4.23
  -5   3  -4   99.65   10.14
  -3   3  -4   -0.19    2.87
  -1   3  -4    2.40    3.46
   1   3  -4  651.55   23.07
   3   3  -4    1.82    2.88
   5   3  -4  537.56   18.70
   7   3  -4   42.15    7.70
   9   3  -4  115.85   12.77
  11   3  -4  275.29   17.10
  13   3  -4   45.08    8.30
  15   3  -4  220.08   19.67
  17   3  -4  447.17   29.11
  19   3  -4  123.93   18.50
  21   3  -4  283.37   29.12
 -12   4  -4  268.65   31.08
 -10   4  -4   17.32   10.06
  -8   4  -4  237.55   26.77
  -6   4  -4  255.04   24.50
  -4   4  -4   68.74   11.03
  -2   4  -4  186.53   17.35
   0   4  -4  238.72   17.32
   2   4  -4  260.55   17.26
   4   4  -4   78.49   11.43
   6   4  -4  652.34   25.98
   8   4  -4    7.76    5.17
  10   4  -4   73.19   11.52
  12   4  -4   19.63    7.23
  14   4  -4  193.46   24.74
  16   4  -4  107.95   19.38
  18   4  -4   52.16   15.16
  -9   5  -4    6.14   14.22
  -7   5  -4   -0.28    7.39
  -5   5  -4   46.00   13.66
  -3   5  -4   -1.45    5.45
  -1   5  -4    2.12    5.20
   1   5  -4  344.28   22.32
   3   5  -4   -0.40    5.62
   5   5  -4  273.48   29.04
   7   5  -4   19.63    9.19
   9   5  -4   57.09   11.31
  11   5  -4  181.44   20.20
  13   5  -4   20.76    8.86
  -2   6  -4   89.50   27.43
   0   6  -4  136.60   33.19
   2   6  -4  152.23   24.57
   4   6  -4   69.74   25.35
  -2  -6  -3   68.39   16.86
   0  -6  -3  424.53   32.71
   2  -6  -3   16.50   10.58
   4  -6  -3  306.62   29.91
   6  -6  -3   99.32   28.47
  -9  -5  -3  127.95   30.96
  -7  -5  -3  135.51   31.35
  -5  -5  -3  759.75   38.83
  -3  -5  -3   12.66    8.07
  -1  -5  -3   47.26   13.01
   1  -5  -3   23.60    9.55
   3  -5  -3   16.38    8.44
   5  -5  -3   36.86   11.45
   7  -5  -3   19.41   13.84
   9  -5  -3  611.33   35.08
  11  -5  -3  356.87   28.52
  13  -5  -3    4.17    7.46
  15  -5  -3   27.74   13.02
 -14  -4  -3  109.49   20.40
 -12  -4  -3   12.20    9.78
 -10  -4  -3  149.16   21.43
  -8  -4  -3   34.22   10.81
  -6  -4  -3    0.52    4.33
  -4  -4  -3  468.22   27.38
  -2  -4  -3  175.49   18.01
   0  -4  -3  875.71   35.68
   2  -4  -3   24.68    6.68
   4  -4  -3  702.42   25.07
   6  -4  -3  225.59   14.91
   8  -4  -3  220.87   20.61
  10  -4  -3   25.57    9.23
  12  -4  -3  510.73   30.90
  14  -4  -3  306.98   25.62
  16  -4  -3   42.20   13.10
  18  -4  -3  168.04   35.90
 -17  -3  -3  215.21   27.99
 -15  -3  -3  121.16   19.87
 -13  -3  -3    0.24    6.68
 -11  -3  -3   47.13   11.64
  -9  -3  -3  247.55   22.03
  -7  -3  -3  230.86   14.70
  -5  -3  -3 1398.71   28.92
  -3  -3  -3   50.58    6.48
  -1  -3  -3  145.85    9.22
   1  -3  -3   30.41    4.88
   3  -3  -3   89.25    9.92
   5  -3  -3   68.61    7.46
   7  -3  -3   24.43    4.69
   9  -3  -3 1182.69   30.71
  11  -3  -3  631.10   23.72
  13  -3  -3   12.09    5.52
  15  -3  -3   57.73   10.36
  17  -3  -3   82.57   16.08
  19  -3  -3   40.35   18.84
 -18  -2  -3   37.19   19.57
 -16  -2  -3    7.64    8.03
 -14  -2  -3  152.22   20.45
 -12  -2  -3   29.28    9.55
 -10  -2  -3  223.16   14.95
  -8  -2  -3   47.29    7.84
  -6  -2  -3    1.52    3.26
  -4  -2  -3  788.30   19.21
  -2  -2  -3  315.15   11.17
   0  -2  -3 1499.57   32.82
   2  -2  -3   39.83    3.81
   4  -2  -3 1340.88   24.77
   6  -2  -3  404.88   12.38
   8  -2  -3  386.51   11.97
  10  -2  -3   27.24    6.08
  12  -2  -3  830.56   25.34
  14  -2  -3  539.17   22.83
  16  -2  -3   41.87    8.24
  18  -2  -3  261.78   24.56
  20  -2  -3  251.33   25.00
  22  -2  -3    6.63    9.50
 -19  -1  -3   44.81   20.59
 -17  -1  -3  323.65   39.06
 -15  -1  -3  244.09   23.45
 -13  -1  -3   -2.19    5.01
 -11  -1  -3   60.76    7.61
  -9  -1  -3  351.77   16.72
  -7  -1  -3  325.64   14.72
  -5  -1  -3 1839.90   47.14
  -3  -1  -3   69.46    4.06
  -1  -1  -3  239.78    8.89
   1  -1  -3   49.97    3.84
   3  -1  -3  167.15    5.46
   5  -1  -3   89.27    6.12
   7  -1  -3   34.62    3.34
   9  -1  -3 1809.14   33.89
  11  -1  -3  947.73   23.33
  13  -1  -3   23.88    4.64
  15  -1  -3   69.21    9.59
  17  -1  -3  156.96   15.26
  19  -1  -3   68.34   11.01
  21  -1  -3   63.54   14.89
  23  -1  -3   -1.05    8.13
 -18   0  -3   30.11   16.43
 -16   0  -3    8.20    7.14
 -14   0  -3  213.54   16.76
 -12   0  -3   27.90    6.93
 -10   0  -3  268.76   12.49
  -8   0  -3   48.76    6.11
  -6   0  -3    2.83    2.32
  -4   0  -3  959.95   31.28
  -2   0  -3  402.91   13.47
   0   0  -3 2118.63   69.93
   2   0  -3   57.29    3.27
   4   0  -3 1555.66   20.30
   6   0  -3  486.30   14.21
   8   0  -3  422.94   13.42
  10   0  -3   43.52    4.78
  12   0  -3  974.03   31.73
  14   0  -3  611.02   23.65
  16   0  -3   67.45    9.88
  18   0  -3  283.73   17.65
  20   0  -3  282.68   19.90
  22   0  -3    7.37    7.94
 -19   1  -3   36.32   13.28
 -17   1  -3  362.42   28.16
 -15   1  -3  210.60   23.86
 -13   1  -3    2.14    4.29
 -11   1  -3   63.74    9.56
  -9   1  -3  384.22   22.47
  -7   1  -3  348.30   23.39
  -5   1  -3 2030.04   43.75
  -3   1  -3   67.10    4.69
  -1   1  -3  265.79    7.06
   1   1  -3   51.86    3.16
   3   1  -3  151.08    4.78
   5   1  -3   86.34    4.13
   7   1  -3   37.81    4.26
   9   1  -3 1514.59   53.38
  11   1  -3  820.01   34.05
  13   1  -3   17.61    4.37
  15   1  -3   68.32    8.53
  17   1  -3  116.76   13.68
  19   1  -3   62.75   13.47
  21   1  -3   63.47   15.03
  23   1  -3    1.24    8.10
 -18   2  -3   32.84   12.51
 -16   2  -3   17.94    9.35
 -14   2  -3  200.40   23.76
 -12   2  -3   23.26    7.09
 -10   2  -3  211.56   15.31
  -8   2  -3   56.88    8.67
  -6   2  -3    2.74    2.59
  -4   2  -3  847.76   19.25
  -2   2  -3  339.97    8.35
   0   2  -3 1571.86   22.52
   2   2  -3   38.66    3.80
   4   2  -3 1351.05   28.22
   6   2  -3  370.55   10.30
   8   2  -3  369.51   14.68
  10   2  -3   28.45    5.16
  12   2  -3  744.97   38.51
  14   2  -3  458.92   30.62
  16   2  -3   40.14    8.27
  18   2  -3  192.27   19.85
  20   2  -3  215.93   20.65
  22   2  -3    9.68    9.15
 -17   3  -3  261.99   31.19
 -15   3  -3  165.12   23.74
 -13   3  -3   -1.54    5.63
 -11   3  -3   48.11    9.79
  -9   3  -3  261.24   16.93
  -7   3  -3  253.20   13.20
  -5   3  -3 1390.31   29.07
  -3   3  -3   42.81    7.09
  -1   3  -3  138.87   12.65
   1   3  -3   36.79    5.53
   3   3  -3   90.66    8.60
   5   3  -3   55.14    7.99
   7   3  -3   26.66    6.33
   9   3  -3 1081.29   39.47
  11   3  -3  593.92   25.19
  13   3  -3    9.23    5.04
  15   3  -3   43.96    8.71
  17   3  -3   94.13   14.73
  19   3  -3   34.33    9.53
  21   3  -3   42.09   10.91
 -14   4  -3  135.40   22.67
 -12   4  -3   23.09   10.93
 -10   4  -3  158.04   22.15
  -8   4  -3   40.50   11.67
  -6   4  -3   -2.10    3.78
  -4   4  -3  489.64   22.72
  -2   4  -3  167.75   16.07
   0   4  -3  809.41   28.18
   2   4  -3   14.43    5.48
   4   4  -3  635.22   24.16
   6   4  -3  203.21   16.10
   8   4  -3  205.33   16.85
  10   4  -3   15.46    6.21
  12   4  -3  441.60   23.80
  14   4  -3  253.44   27.81
  16   4  -3   16.49    9.50
  18   4  -3  109.04   19.01
  -9   5  -3  151.24   23.17
  -7   5  -3  159.41   18.29
  -5   5  -3  792.00   32.72
  -3   5  -3   27.75    8.41
  -1   5  -3   52.25   10.68
   1   5  -3   15.87    6.94
   3   5  -3   20.52    8.20
   5   5  -3   26.56    9.95
   7   5  -3   23.86    7.80
   9   5  -3  585.80   28.44
  11   5  -3  324.60   24.14
  13   5  -3    6.77    8.00
  15   5  -3   25.75   12.43
  -4   6  -3  250.73   30.30
  -2   6  -3   53.51   12.82
   0   6  -3  404.30   32.46
   2   6  -3    7.89    8.57
   4   6  -3  322.26   30.95
   6   6  -3  112.77   20.92
   8   6  -3  130.47   33.02
  -4  -6  -2    9.44   12.85
  -2  -6  -2  179.38   24.92
   0  -6  -2    6.19    9.10
   2  -6  -2   33.62   12.66
   4  -6  -2   48.92   14.82
   6  -6  -2  428.30   47.38
   8  -6  -2   21.66   16.99
 -13  -5  -2   -7.42   12.37
 -11  -5  -2  198.96   26.26
  -9  -5  -2  193.36   25.12
  -7  -5  -2   30.47   16.59
  -5  -5  -2   15.87    8.46
  -3  -5  -2    8.71    7.32
  -1  -5  -2  638.89   33.97
   1  -5  -2  271.25   22.76
   3  -5  -2  685.99   35.27
   5  -5  -2   15.52    8.29
   7  -5  -2   -3.82    5.28
   9  -5  -2    2.86    9.80
  11  -5  -2   37.25   12.44
  13  -5  -2    3.05    8.38
  15  -5  -2  426.13   33.50
 -16  -4  -2    7.54   10.09
 -14  -4  -2  298.82   44.64
 -12  -4  -2  314.11   26.17
 -10  -4  -2  352.59   26.13
  -8  -4  -2  251.26   21.38
  -6  -4  -2   20.92    6.60
  -4  -4  -2    1.46    3.76
  -2  -4  -2  386.09   18.15
   0  -4  -2   21.45    5.87
   2  -4  -2   80.64   10.16
   4  -4  -2   83.35   10.48
   6  -4  -2  843.48   27.04
   8  -4  -2   42.02    8.27
  10  -4  -2   51.34   11.87
  12  -4  -2   30.32   10.30
  14  -4  -2  139.33   20.23
  16  -4  -2  226.57   26.72
  18  -4  -2  246.46   43.13
 -17  -3  -2  258.62   29.42
 -15  -3  -2  414.02   29.78
 -13  -3  -2    5.79    6.63
 -11  -3  -2  351.45   24.26
  -9  -3  -2  382.20   23.84
  -7  -3  -2  113.35   11.74
  -5  -3  -2   58.55    6.66
  -3  -3  -2    8.64    3.35
  -1  -3  -2 1335.85   23.20
   1  -3  -2  603.72   15.40
   3  -3  -2 1540.76   23.83
   5  -3  -2   39.14    4.48
   7  -3  -2    1.70    2.73
   9  -3  -2    0.71    2.57
  11  -3  -2   69.88    9.65
  13  -3  -2   13.17    5.57
  15  -3  -2  615.16   32.28
  17  -3  -2   26.76   15.11
  19  -3  -2   26.45   16.14
 -18  -2  -2   74.35   23.91
 -16  -2  -2    9.36    7.53
 -14  -2  -2  335.24   23.92
 -12  -2  -2  478.07   23.56
 -10  -2  -2  515.80   19.49
  -8  -2  -2  412.95   13.60
  -6  -2  -2   33.31    4.78
  -4  -2  -2    4.12    1.98
  -2  -2  -2  701.85   16.33
   0  -2  -2   57.18    5.11
   2  -2  -2  124.61    5.29
   4  -2  -2  146.62    5.38
   6  -2  -2 1612.11   22.76
   8  -2  -2   78.97    6.25
  10  -2  -2   80.58    9.14
  12  -2  -2   71.96    9.28
  14  -2  -2  242.71   14.42
  16  -2  -2  257.69   20.73
  18  -2  -2  400.26   27.56
  20  -2  -2  438.49   31.12
  22  -2  -2    5.92    8.45
 -19  -1  -2    9.32   12.15
 -17  -1  -2  406.65   29.61
 -15  -1  -2  624.06   30.84
 -13  -1  -2    0.52    3.60
 -11  -1  -2  538.13   18.35
  -9  -1  -2  494.33   15.97
  -7  -1  -2  143.91    7.61
  -5  -1  -2   76.74    5.54
  -3  -1  -2   23.50    2.63
  -1  -1  -2 1914.94   36.22
   1  -1  -2 1011.75   22.28
   3  -1  -2 2514.34   52.99
   5  -1  -2   77.14    4.04
   7  -1  -2    6.88    2.38
   9  -1  -2   -0.11    1.85
  11  -1  -2  104.60    7.84
  13  -1  -2   17.70    4.09
  15  -1  -2  791.96   37.14
  17  -1  -2   24.65    6.70
  19  -1  -2   59.61   13.16
  21  -1  -2   -0.49    6.54
  23  -1  -2  161.77   24.50
 -20   0  -2   50.10   14.50
 -18   0  -2   77.70   16.08
 -16   0  -2    8.93    7.19
 -14   0  -2  420.39   19.96
 -12   0  -2  542.31   23.26
 -10   0  -2  584.54   24.36
  -8   0  -2  533.39   11.64
  -6   0  -2   52.02    3.35
  -4   0  -2    5.83    2.03
  -2   0  -2  882.17   29.81
   0   0  -2   81.04    3.66
   2   0  -2  154.50    4.75
   4   0  -2  189.30    5.36
   6   0  -2 1804.03   41.23
   8   0  -2  100.36    5.16
  10   0  -2   98.20    5.83
  12   0  -2   71.73    8.40
  14   0  -2  256.24   14.69
  16   0  -2  295.78   16.61
  18   0  -2  430.98   21.46
  20   0  -2  417.86   22.68
  22   0  -2   -2.80    6.68
 -21   1  -2   38.84   14.48
 -19   1  -2    5.23    7.68
 -17   1  -2  413.12   28.75
 -15   1  -2  587.14   31.45
 -13   1  -2    3.73    4.27
 -11   1  -2  493.82   24.49
  -9   1  -2  489.80   19.09
  -7   1  -2  180.01    8.58
  -5   1  -2   88.47    5.73
  -3   1  -2   28.90    3.55
  -1   1  -2 2129.72   18.62
   1   1  -2 1048.07   18.11
   3   1  -2 2432.70   27.09
   5   1  -2   75.39    4.24
   7   1  -2    3.00    1.71
   9   1  -2    0.32    1.62
  11   1  -2  108.66    8.86
  13   1  -2   13.37    3.65
  15   1  -2  696.17   28.61
  17   1  -2   32.06    7.61
  19   1  -2   41.17   11.56
  21   1  -2   -1.93    6.61
  23   1  -2  126.55   30.96
 -20   2  -2   60.93   16.83
 -18   2  -2   74.60   16.62
 -16   2  -2   16.44    8.53
 -14   2  -2  382.24   25.88
 -12   2  -2  438.78   20.10
 -10   2  -2  556.19   18.29
  -8   2  -2  433.32   14.51
  -6   2  -2   46.26    5.79
  -4   2  -2    5.79    2.71
  -2   2  -2  710.10   12.11
   0   2  -2   58.36    5.19
   2   2  -2  134.18    5.09
   4   2  -2  132.60    5.88
   6   2  -2 1412.50   31.64
   8   2  -2   69.19    6.87
  10   2  -2   71.02    8.76
  12   2  -2   67.17    8.89
  14   2  -2  198.72   15.94
  16   2  -2  247.16   20.33
  18   2  -2  374.29   25.48
  20   2  -2  365.34   28.68
  22   2  -2    0.20    8.22
 -17   3  -2  243.33   28.04
 -15   3  -2  396.92   29.08
 -13   3  -2   -2.52    5.38
 -11   3  -2  356.94   19.36
  -9   3  -2  370.11   15.69
  -7   3  -2  119.59   12.30
  -5   3  -2   61.40    8.67
  -3   3  -2   13.79    4.51
  -1   3  -2 1259.42   22.94
   1   3  -2  542.33   16.24
   3   3  -2 1399.64   30.41
   5   3  -2   42.69    5.33
   7   3  -2    3.68    2.79
   9   3  -2    0.58    2.65
  11   3  -2   60.33    9.14
  13   3  -2   11.78    5.33
  15   3  -2  544.22   28.34
  17   3  -2   22.01    7.69
  19   3  -2   23.19    8.14
  21   3  -2    4.34    8.55
 -14   4  -2  253.87   29.20
 -12   4  -2  261.83   25.38
 -10   4  -2  374.15   21.19
  -8   4  -2  224.28   16.67
  -6   4  -2   21.69    6.63
  -4   4  -2    5.16    4.23
  -2   4  -2  360.71   18.52
   0   4  -2   31.13    5.80
   2   4  -2   80.99    9.03
   4   4  -2   72.21    9.99
   6   4  -2  762.68   26.94
   8   4  -2   33.05    7.73
  10   4  -2   45.02    8.82
  12   4  -2   43.84   11.51
  14   4  -2  118.64   19.38
  16   4  -2  133.26   20.51
  18   4  -2  199.06   26.35
 -11   5  -2  207.50   39.03
  -9   5  -2  227.44   27.16
  -7   5  -2   56.40   11.01
  -5   5  -2   35.09    9.14
  -3   5  -2    1.44    4.79
  -1   5  -2  641.49   27.75
   1   5  -2  268.60   24.32
   3   5  -2  638.98   26.96
   5   5  -2   10.67    5.47
   7   5  -2   -1.08    4.24
   9   5  -2    0.14    4.98
  11   5  -2   30.20    9.22
  13   5  -2    2.27    7.24
  15   5  -2  335.18   35.23
  -6   6  -2   12.43    9.36
  -4   6  -2   -0.22    7.81
  -2   6  -2  193.86   26.38
   0   6  -2    7.85    9.01
   2   6  -2   40.78   13.37
   4   6  -2   42.91   13.76
   6   6  -2  391.57   31.34
   8   6  -2   12.56    8.18
  10   6  -2   22.62   17.08
  -6  -6  -1  453.39   49.61
  -4  -6  -1   16.08   14.16
  -2  -6  -1    2.55    8.31
   0  -6  -1    9.34    9.66
   2  -6  -1   -0.34    7.41
   4  -6  -1   -4.12    6.71
   6  -6  -1  404.38   31.13
   8  -6  -1   -2.36   12.56
 -13  -5  -1   12.41   10.24
 -11  -5  -1  197.86   26.09
  -9  -5  -1    2.10    7.26
  -7  -5  -1  152.07   21.13
  -5  -5  -1   32.69   10.80
  -3  -5  -1  625.17   26.18
  -1  -5  -1    7.97    6.99
   1  -5  -1    1.44    5.52
   3  -5  -1   34.69   10.64
   5  -5  -1  503.06   30.27
   7  -5  -1   31.74   11.15
   9  -5  -1  322.91   38.13
  11  -5  -1  526.41   33.58
  13  -5  -1   43.83   13.66
  15  -5  -1    6.19    9.29
 -16  -4  -1   10.03    9.54
 -14  -4  -1    2.30    7.90
 -12  -4  -1  105.60   17.76
 -10  -4  -1   42.11   11.54
  -8  -4  -1  490.31   28.25
  -6  -4  -1  924.31   28.53
  -4  -4  -1   55.79    8.96
  -2  -4  -1    1.09    3.74
   0  -4  -1   13.30    4.99
   2  -4  -1   -1.95    3.21
   4  -4  -1    0.16    2.87
   6  -4  -1  830.12   26.63
   8  -4  -1    0.50    3.99
  10  -4  -1  313.70   23.06
  12  -4  -1  400.69   27.26
  14  -4  -1   -1.98    6.38
  16  -4  -1   91.17   18.19
  18  -4  -1   -3.13   11.43
 -19  -3  -1   18.15   17.35
 -17  -3  -1    5.07   11.21
 -15  -3  -1   40.39   11.80
 -13  -3  -1   14.76    7.82
 -11  -3  -1  280.57   16.41
  -9  -3  -1    2.82    3.93
  -7  -3  -1  287.83   12.16
  -5  -3  -1   73.40    8.90
  -3  -3  -1 1345.58   22.75
  -1  -3  -1   30.32    4.50
   1  -3  -1   -0.35    2.13
   3  -3  -1   70.60    8.18
   5  -3  -1 1016.16   19.77
   7  -3  -1   71.42    7.14
   9  -3  -1  639.30   17.66
  11  -3  -1  981.06   36.71
  13  -3  -1   75.12   13.59
  15  -3  -1   15.57    8.58
  17  -3  -1    4.37    7.26
  19  -3  -1  359.72   42.07
 -18  -2  -1   71.83   23.03
 -16  -2  -1   24.46    7.72
 -14  -2  -1   -2.13    3.89
 -12  -2  -1  170.54   13.67
 -10  -2  -1   86.30    9.97
  -8  -2  -1  812.69   17.78
  -6  -2  -1 1567.93   22.98
  -4  -2  -1   91.53    5.75
  -2  -2  -1    2.32    1.81
   0  -2  -1   28.77    3.62
   2  -2  -1    0.60    1.57
   4  -2  -1    2.12    1.82
   6  -2  -1 1589.91   24.99
   8  -2  -1    4.29    2.47
  10  -2  -1  561.33   14.89
  12  -2  -1  728.17   23.21
  14  -2  -1   -1.31    3.51
  16  -2  -1  124.46   17.31
  18  -2  -1   -1.15    5.37
  20  -2  -1    9.85    7.95
  22  -2  -1  129.88   22.32
 -21  -1  -1    7.76    9.42
 -19  -1  -1   20.07   10.21
 -17  -1  -1    4.74    5.96
 -15  -1  -1   79.36   10.95
 -13  -1  -1    7.11    4.37
 -11  -1  -1  397.56   14.56
  -9  -1  -1    5.11    2.54
  -7  -1  -1  337.85   10.08
  -5  -1  -1  119.11    5.67
  -3  -1  -1 1976.64   19.49
  -1  -1  -1   52.98    3.57
   1  -1  -1    3.09    1.29
   3  -1  -1  161.60    5.36
   5  -1  -1 1835.78   24.13
   7  -1  -1  146.50    6.01
   9  -1  -1  950.17   24.96
  11  -1  -1 1350.04   34.52
  13  -1  -1   77.05    7.57
  15  -1  -1   12.60    4.99
  17  -1  -1    0.54    5.09
  19  -1  -1  424.15   28.67
  21  -1  -1  566.61   35.46
  23  -1  -1   73.48   24.28
 -22   0  -1   11.84   11.42
 -20   0  -1  785.18   41.84
 -18   0  -1  115.65   18.48
 -16   0  -1   34.85   10.59
 -14   0  -1    2.07    3.90
 -12   0  -1  212.78   10.19
 -10   0  -1   87.21    6.69
  -8   0  -1  788.34   21.02
  -6   0  -1 1336.14   26.00
  -4   0  -1   92.59    3.76
  -2   0  -1    3.38    1.40
   0   0  -1   46.66    1.89
   2   0  -1    2.97    1.04
   4   0  -1    0.08    1.11
   6   0  -1 1921.50   73.34
   8   0  -1    7.52    1.82
  10   0  -1  690.73   22.92
  12   0  -1  930.82   22.67
  14   0  -1    2.22    2.88
  16   0  -1  167.15   13.90
  18   0  -1    2.81    4.42
  20   0  -1    9.98    7.86
  22   0  -1  142.94   22.27
 -21   1  -1   -0.98    7.90
 -19   1  -1   16.98    9.08
 -17   1  -1    1.19    5.37
 -15   1  -1   66.72   13.05
 -13   1  -1   12.97    4.01
 -11   1  -1  367.84   12.83
  -9   1  -1    9.32    3.02
  -7   1  -1  384.77   11.78
  -5   1  -1  131.08    6.03
  -3   1  -1 2183.22   23.63
  -1   1  -1   53.10    2.92
   1   1  -1    3.09    1.19
   3   1  -1  140.89    5.20
   5   1  -1 1652.89   33.80
   7   1  -1  135.65    6.49
   9   1  -1  807.89   26.29
  11   1  -1 1193.87   40.59
  13   1  -1   74.15    8.47
  15   1  -1    7.45    3.51
  17   1  -1    3.64    4.12
  19   1  -1  380.08   26.90
  21   1  -1  551.88   51.08
 -20   2  -1  704.30   41.18
 -18   2  -1   68.75   15.59
 -16   2  -1   27.61    9.83
 -14   2  -1    2.49    5.65
 -12   2  -1  199.75   11.71
 -10   2  -1   91.84    8.56
  -8   2  -1  838.95   19.08
  -6   2  -1 1636.42   18.28
  -4   2  -1   88.03    4.93
  -2   2  -1    0.84    1.52
   0   2  -1   27.75    3.71
   2   2  -1    1.00    1.21
   4   2  -1   -0.35    1.38
   6   2  -1 1366.71   26.37
   8   2  -1    5.28    1.83
  10   2  -1  450.47   17.93
  12   2  -1  568.82   24.21
  14   2  -1   -0.11    3.32
  16   2  -1  132.17   16.89
  18   2  -1    2.13    5.51
  20   2  -1   12.73    8.88
  22   2  -1  105.98   20.47
 -19   3  -1   12.49   14.17
 -17   3  -1    0.23   10.85
 -15   3  -1   42.07   11.98
 -13   3  -1    9.02    5.19
 -11   3  -1  292.09   16.79
  -9   3  -1    4.75    3.68
  -7   3  -1  266.15   14.40
  -5   3  -1   80.27    9.46
  -3   3  -1 1262.25   22.45
  -1   3  -1   22.59    4.22
   1   3  -1   -0.64    2.01
   3   3  -1   58.69    5.33
   5   3  -1  919.86   19.38
   7   3  -1   69.13    7.39
   9   3  -1  545.34   17.77
  11   3  -1  827.97   28.79
  13   3  -1   54.88    9.38
  15   3  -1    7.59    5.26
  17   3  -1    4.58    7.38
  19   3  -1  334.13   30.17
  21   3  -1  465.23   35.12
 -16   4  -1    6.82   12.76
 -14   4  -1   -0.24    9.93
 -12   4  -1  108.30   17.56
 -10   4  -1   49.10    9.59
  -8   4  -1  488.82   22.31
  -6   4  -1  926.10   29.42
  -4   4  -1   47.56    8.26
  -2   4  -1    1.37    2.65
   0   4  -1   12.12    4.03
   2   4  -1    0.84    3.09
   4   4  -1    0.73    3.48
   6   4  -1  763.29   26.48
   8   4  -1    1.16    3.74
  10   4  -1  312.38   18.69
  12   4  -1  374.65   26.38
  14   4  -1    1.45    6.27
  16   4  -1   70.16   15.60
  18   4  -1    1.94   11.56
 -13   5  -1   11.34   14.25
 -11   5  -1  193.29   25.18
  -9   5  -1    3.19    6.95
  -7   5  -1  145.68   21.04
  -5   5  -1   20.02    8.42
  -3   5  -1  603.83   26.43
  -1   5  -1    4.47    5.70
   1   5  -1   -0.99    4.14
   3   5  -1   25.49    7.35
   5   5  -1  482.08   23.80
   7   5  -1   36.75    9.03
   9   5  -1  290.14   20.79
  11   5  -1  423.44   30.71
  13   5  -1   25.93   11.30
  15   5  -1    3.62   12.88
  -8   6  -1  208.53   27.93
  -6   6  -1  402.57   32.17
  -4   6  -1   32.22   12.37
  -2   6  -1    1.10    6.86
   0   6  -1    4.86    7.91
   2   6  -1    0.39    6.83
   4   6  -1    2.35   10.37
   6   6  -1  360.20   29.66
   8   6  -1    1.23    8.04
 -10  -6   0   14.60   16.54
  -8  -6   0   35.26   13.38
  -6  -6   0    2.89   11.33
  -4  -6   0    4.71   12.24
  -2  -6   0   -0.40    8.30
   0  -6   0 1447.17   56.56
   2  -6   0    1.01    7.54
   4  -6   0   16.52   10.15
   6  -6   0   13.39   10.02
   8  -6   0   18.65   17.00
 -15  -5   0  186.79   37.83
 -13  -5   0   73.82   17.41
 -11  -5   0   88.34   17.67
  -9  -5   0  176.30   23.28
  -7  -5   0  160.02   21.65
  -5  -5   0  444.27   28.46
  -3  -5   0  103.98   13.29
  -1  -5   0   17.83    6.53
   1  -5   0   20.91    6.98
   3  -5   0   65.54   13.97
   5  -5   0  469.92   29.66
   7  -5   0  165.54   21.59
   9  -5   0  190.69   34.90
  11  -5   0   87.48   17.28
  13  -5   0   81.41   17.65
  15  -5   0  201.92   39.28
 -16  -4   0  174.56   24.18
 -14  -4   0  503.96   32.62
 -12  -4   0  135.13   15.21
 -10  -4   0   20.39    6.93
  -8  -4   0   74.51   13.88
  -6  -4   0   15.04    5.72
  -4  -4   0   23.70    6.41
  -2  -4   0   11.09    4.93
   0  -4   0 2905.22   47.81
   2  -4   0   14.18    5.11
   4  -4   0   20.57    6.06
   6  -4   0   16.50    5.80
   8  -4   0   74.90   10.73
  10  -4   0   28.51    7.61
  12  -4   0  143.68   20.07
  14  -4   0  556.11   34.01
  16  -4   0  275.84   30.73
  18  -4   0    3.10   13.63
 -19  -3   0   28.26   16.90
 -17  -3   0  352.23   27.29
 -15  -3   0  309.87   19.21
 -13  -3   0  124.98   14.19
 -11  -3   0  128.98   13.43
  -9  -3   0  358.66   17.15
  -7  -3   0  409.20   16.63
  -5  -3   0 1020.20   24.80
  -3  -3   0  209.13   11.60
  -1  -3   0   35.17    4.44
   1  -3   0   38.40    5.91
   3  -3   0  200.34   11.13
   5  -3   0 1022.51   25.23
   7  -3   0  390.27   16.64
   9  -3   0  381.76   17.20
  11  -3   0  134.13   12.04
  13  -3   0  181.57   20.86
  15  -3   0  362.87   25.93
  17  -3   0  438.31   29.96
  19  -3   0   34.44   18.18
 -20  -2   0   71.59   16.15
 -18  -2   0   10.94    8.02
 -16  -2   0  283.78   22.55
 -14  -2   0  769.84   26.25
 -12  -2   0  209.77   13.25
 -10  -2   0   49.99    7.75
  -8  -2   0  116.07    7.13
  -6  -2   0   36.14    5.01
  -4  -2   0   37.67    5.07
  -2  -2   0   26.68    3.02
   0  -2   0 4684.49   42.70
   2  -2   0   23.20    2.85
   4  -2   0   38.13    3.99
   6  -2   0   33.84    4.28
   8  -2   0  135.54    7.76
  10  -2   0   60.32    6.59
  12  -2   0  235.49   13.78
  14  -2   0  852.78   27.36
  16  -2   0  325.87   18.54
  18  -2   0    9.34    7.48
  20  -2   0   52.94   20.31
 -23  -1   0    4.59   15.90
 -21  -1   0  107.95   19.86
 -19  -1   0   54.01   13.67
 -17  -1   0  483.96   29.03
 -15  -1   0  441.83   23.37
 -13  -1   0  168.26   12.37
 -11  -1   0  165.48   10.52
  -9  -1   0  480.86   11.27
  -7  -1   0  559.45   11.31
  -5  -1   0 1538.58   16.41
  -3  -1   0  343.31    8.48
  -1  -1   0   53.71    2.85
   1  -1   0   53.32    2.73
   3  -1   0  374.80    7.61
   5  -1   0 1632.86   25.76
   7  -1   0  642.52   16.89
   9  -1   0  499.73   15.92
  11  -1   0  189.78   10.46
  13  -1   0  200.14   11.40
  15  -1   0  456.48   25.76
  17  -1   0  550.42   44.03
  19  -1   0   47.71   12.49
  21  -1   0   97.40   18.63
 -22   0   0   -2.14    8.14
 -20   0   0   83.90   17.20
 -18   0   0   -0.17    5.71
 -16   0   0  353.31   23.68
 -14   0   0  931.81   29.17
 -12   0   0  220.19    9.98
 -10   0   0   43.62    5.03
  -8   0   0  111.76    6.07
  -6   0   0   33.78    3.58
  -4   0   0   26.50    2.58
  -2   0   0   31.36    2.38
   2   0   0   38.22    2.26
   4   0   0   42.96    2.98
   6   0   0   44.77    3.59
   8   0   0  162.80    6.75
  10   0   0   73.18    5.93
  12   0   0  280.84   10.87
  14   0   0  979.72   30.33
  16   0   0  375.50   18.49
  18   0   0    1.45    5.73
  20   0   0   76.40   16.10
  22   0   0    1.52    8.27
 -21   1   0  106.09   19.08
 -19   1   0   26.76   10.04
 -17   1   0  481.32   28.73
 -15   1   0  447.73   19.80
 -13   1   0  154.07   11.60
 -11   1   0  166.55    8.79
  -9   1   0  462.26   12.34
  -7   1   0  553.39   12.97
  -5   1   0 1473.40   23.97
  -3   1   0  350.51    6.51
  -1   1   0   50.68    3.20
   1   1   0   49.25    3.15
   3   1   0  332.57    6.25
   5   1   0 1553.73   28.01
   7   1   0  583.32   17.57
   9   1   0  510.57   19.01
  11   1   0  178.39   10.52
  13   1   0  182.89   11.28
  15   1   0  468.13   20.23
  17   1   0  495.89   22.61
  19   1   0   52.05   19.15
  21   1   0  107.17   28.04
 -20   2   0   49.79   21.40
 -18   2   0    0.79    6.19
 -16   2   0  291.72   17.73
 -14   2   0  726.37   30.43
 -12   2   0  179.14   13.47
 -10   2   0   47.99    5.06
  -8   2   0  114.73    7.10
  -6   2   0   33.72    4.18
  -4   2   0   34.41    4.01
  -2   2   0   21.78    3.22
   0   2   0 4307.93   44.18
   2   2   0   19.54    2.98
   4   2   0   35.07    2.89
   6   2   0   29.43    3.24
   8   2   0  118.13    7.12
  10   2   0   52.72    5.93
  12   2   0  196.03   12.68
  14   2   0  773.26   52.02
  16   2   0  289.73   22.74
  18   2   0   -2.95    5.21
  20   2   0   74.42   16.17
 -19   3   0   18.50   15.07
 -17   3   0  343.11   39.81
 -15   3   0  357.30   25.07
 -13   3   0  128.78   13.97
 -11   3   0  120.18   12.65
  -9   3   0  342.99   16.45
  -7   3   0  383.64   13.15
  -5   3   0  946.01   20.94
  -3   3   0  172.16    8.75
  -1   3   0   36.74    3.86
   1   3   0   31.70    4.19
   3   3   0  189.52    8.72
   5   3   0  909.67   19.76
   7   3   0  343.73   13.28
   9   3   0  319.68   15.95
  11   3   0  117.38   12.65
  13   3   0  131.60   13.81
  15   3   0  331.32   25.15
  17   3   0  383.88   28.71
  19   3   0   37.75   13.05
 -16   4   0  166.24   33.88
 -14   4   0  537.69   33.11
 -12   4   0  158.66   20.80
 -10   4   0   25.38    9.20
  -8   4   0   51.12   11.28
  -6   4   0   26.97    6.63
  -4   4   0   23.59    5.04
  -2   4   0    8.39    3.80
   0   4   0 2506.28   51.37
   2   4   0    7.80    4.38
   4   4   0   25.93    6.44
   6   4   0   11.80    4.98
   8   4   0   53.55    9.24
  10   4   0   24.64    8.83
  12   4   0  144.97   15.62
  14   4   0  527.18   32.13
  16   4   0  233.13   26.56
  18   4   0   -2.36   11.41
 -15   5   0  213.83   39.31
 -13   5   0   55.30   15.10
 -11   5   0   62.93   15.12
  -9   5   0  184.13   23.72
  -7   5   0  170.07   22.26
  -5   5   0  435.75   28.35
  -3   5   0   80.72   14.91
  -1   5   0   24.17    7.19
   1   5   0   17.58    6.19
   3   5   0   87.75   12.15
   5   5   0  427.45   28.11
   7   5   0  164.79   21.60
   9   5   0  177.94   23.18
  11   5   0   56.41   14.00
  13   5   0   65.52   22.26
  -8   6   0   36.63   14.05
  -6   6   0    7.17    7.99
  -4   6   0    5.20    8.28
  -2   6   0    5.38    9.58
   0   6   0 1160.90   74.10
   2   6   0    3.07    6.54
   4   6   0   10.02    8.96
   6   6   0    3.37    7.93
   8   6   0   23.84   11.36
  -8  -6   1    1.02    8.38
  -6  -6   1  397.40   31.65
  -4  -6   1    6.07    8.63
  -2  -6   1    4.71    7.06
   0  -6   1   14.86    9.87
   2  -6   1    2.93    7.74
   4  -6   1   24.35   12.03
   6  -6   1  492.89   35.35
 -15  -5   1    1.61   13.50
 -13  -5   1   36.03   12.97
 -11  -5   1  522.22   33.24
  -9  -5   1  303.18   25.74
  -7  -5   1   17.11    8.80
  -5  -5   1  490.59   30.17
  -3  -5   1   33.79    8.70
  -1  -5   1    1.23    4.75
   1  -5   1   13.70    6.31
   3  -5   1  666.15   27.69
   5  -5   1   25.94   10.04
   7  -5   1  166.12   22.11
   9  -5   1    3.82    7.21
  11  -5   1  198.92   37.34
  13  -5   1    5.42    9.05
 -18  -4   1   -3.93   10.93
 -16  -4   1   95.98   18.37
 -14  -4   1    2.44    5.47
 -12  -4   1  392.83   21.76
 -10  -4   1  351.29   19.71
  -8  -4   1    1.19    5.09
  -6  -4   1  784.39   33.71
  -4  -4   1    2.55    3.87
  -2  -4   1    1.08    3.46
   0  -4   1   14.64    5.48
   2  -4   1    0.81    4.83
   4  -4   1   50.99    8.36
   6  -4   1  918.67   28.87
   8  -4   1  527.24   23.08
  10  -4   1   47.05    9.48
  12  -4   1  133.04   19.79
  14  -4   1    3.32    7.48
  16  -4   1    6.21    9.02
 -21  -3   1  485.96   49.78
 -19  -3   1  335.94   30.33
 -17  -3   1    2.28    6.67
 -15  -3   1    8.37    5.69
 -13  -3   1   71.63   10.81
 -11  -3   1  868.66   27.77
  -9  -3   1  611.09   22.22
  -7  -3   1   85.71    9.06
  -5  -3   1 1046.18   24.93
  -3  -3   1   62.05    7.87
  -1  -3   1    0.59    2.31
   1  -3   1   25.24    5.03
   3  -3   1 1324.91   27.84
   5  -3   1   78.95    9.37
   7  -3   1  271.18   14.63
   9  -3   1    2.19    3.81
  11  -3   1  327.64   17.61
  13  -3   1    8.64    6.87
  15  -3   1   64.57   14.24
  17  -3   1    6.11    7.91
  19  -3   1    5.81   12.89
 -22  -2   1  115.67   21.53
 -20  -2   1    8.18    8.05
 -18  -2   1   -0.77    5.81
 -16  -2   1  121.07   17.73
 -14  -2   1    0.02    3.72
 -12  -2   1  701.87   23.04
 -10  -2   1  511.77   18.50
  -8  -2   1    5.82    2.43
  -6  -2   1 1634.00   25.41
  -4  -2   1    0.68    2.13
  -2  -2   1    1.16    1.48
   0  -2   1   29.39    4.10
   2  -2   1    1.15    2.03
   4  -2   1   97.18    5.59
   6  -2   1 1603.81   26.04
   8  -2   1  885.63   22.13
  10  -2   1   98.07   10.20
  12  -2   1  188.44   13.32
  14  -2   1    2.83    4.32
  16  -2   1   38.77    8.53
  18  -2   1   87.17   24.04
  20  -2   1  756.00   61.72
 -23  -1   1   90.29   19.68
 -21  -1   1  620.01   37.28
 -19  -1   1  332.03   25.97
 -17  -1   1    2.83    4.47
 -15  -1   1   13.88    5.12
 -13  -1   1   70.08    8.68
 -11  -1   1 1199.19   25.42
  -9  -1   1  779.24   18.74
  -7  -1   1  132.61    7.49
  -5  -1   1 1912.22   17.32
  -3  -1   1  161.94    5.86
  -1  -1   1    4.94    1.69
   1  -1   1   55.34    5.26
   3  -1   1 2097.05   22.01
   5  -1   1  129.37    4.60
   7  -1   1  371.98   13.01
   9  -1   1    7.04    2.54
  11  -1   1  445.16   17.33
  13  -1   1   12.42    4.76
  15  -1   1   74.99   13.46
  17  -1   1    3.90    6.59
  19  -1   1   13.28    8.69
  21  -1   1   15.22    9.86
 -22   0   1  134.50   21.90
 -20   0   1   -3.01    5.95
 -18   0   1    4.41    4.67
 -16   0   1  138.93   13.93
 -14   0   1    2.38    3.37
 -12   0   1  739.59   28.20
 -10   0   1  432.29   20.02
  -8   0   1    2.94    1.70
  -6   0   1 1582.17   46.47
  -4   0   1    2.19    2.22
  -2   0   1    1.74    1.20
   0   0   1   50.82    3.07
   2   0   1    2.94    1.49
   4   0   1  121.28    5.64
   6   0   1 2042.46   37.60
   8   0   1 1052.23   18.37
  10   0   1   99.67    7.35
  12   0   1  219.35   10.33
  14   0   1    5.46    5.51
  16   0   1   32.71    9.78
  18   0   1  115.92   17.77
  20   0   1  863.27   59.82
  22   0   1   26.21   12.48
 -23   1   1   94.24   27.73
 -21   1   1  544.40   50.67
 -19   1   1  378.39   26.99
 -17   1   1    4.66    4.52
 -15   1   1   11.46    4.97
 -13   1   1   71.77    9.00
 -11   1   1  937.86   23.36
  -9   1   1  755.22   29.63
  -7   1   1  101.95    6.51
  -5   1   1 1288.02   23.38
  -3   1   1  150.65    5.00
  -1   1   1    5.35    1.81
   1   1   1   52.77    3.30
   3   1   1 2153.64   19.60
   5   1   1  132.22    5.74
   7   1   1  394.36   13.32
   9   1   1    7.21    2.58
  11   1   1  381.10   20.49
  13   1   1   15.48    4.92
  15   1   1   72.74   10.12
  17   1   1    1.31    5.06
  19   1   1   16.03   13.10
  21   1   1   17.28   13.92
 -22   2   1  128.86   32.61
 -20   2   1    0.32   10.05
 -18   2   1    0.27    5.93
 -16   2   1  134.54   18.10
 -14   2   1    5.04    4.09
 -12   2   1  528.01   16.21
 -10   2   1  453.23   13.95
  -8   2   1    7.68    2.61
  -6   2   1 1364.37   26.33
  -4   2   1    1.34    1.61
  -2   2   1    1.87    1.68
   0   2   1   26.14    3.42
   2   2   1    1.63    1.66
   4   2   1   87.52    6.12
   6   2   1 1558.98   22.30
   8   2   1  861.61   19.63
  10   2   1   83.87    7.83
  12   2   1  198.98   16.90
  14   2   1    0.27    4.75
  16   2   1   26.40    9.40
  18   2   1   86.50   16.52
  20   2   1  729.82   60.68
 -19   3   1  250.10   41.76
 -17   3   1    7.73    7.56
 -15   3   1    6.23    6.37
 -13   3   1   53.95   11.79
 -11   3   1  774.77   32.70
  -9   3   1  530.94   17.14
  -7   3   1   75.41    7.39
  -5   3   1  926.86   23.08
  -3   3   1   61.41    5.30
  -1   3   1   -0.99    1.88
   1   3   1   24.93    4.09
   3   3   1 1270.33   22.51
   5   3   1   80.85    7.70
   7   3   1  250.14   11.54
   9   3   1    3.35    3.53
  11   3   1  298.31   16.77
  13   3   1   12.54    7.01
  15   3   1   68.42   14.38
  17   3   1    3.88    7.93
  19   3   1   10.11    8.93
 -18   4   1    0.30    8.20
 -16   4   1   76.66   15.96
 -14   4   1    1.27    5.67
 -12   4   1  355.91   25.67
 -10   4   1  329.76   23.68
  -8   4   1    0.78    4.73
  -6   4   1  760.49   25.95
  -4   4   1    0.78    3.26
  -2   4   1    4.04    3.19
   0   4   1   12.67    4.88
   2   4   1    0.47    2.82
   4   4   1   52.18    8.48
   6   4   1  822.34   34.59
   8   4   1  466.36   21.22
  10   4   1   50.25    9.48
  12   4   1  140.82   19.46
  14   4   1   -2.38    5.31
  16   4   1   27.92   11.67
 -15   5   1    6.71    9.71
 -13   5   1   17.32   10.23
 -11   5   1  403.65   29.96
  -9   5   1  268.02   28.21
  -7   5   1   32.75   10.89
  -5   5   1  505.51   29.82
  -3   5   1   27.56    7.39
  -1   5   1    0.08    4.25
   1   5   1   17.93    7.89
   3   5   1  508.33   30.30
   5   5   1   19.85    8.70
   7   5   1  139.54   20.36
   9   5   1   -0.53    5.46
  11   5   1  142.35   31.47
  13   5   1   -1.49   10.55
  -8   6   1    2.63   12.00
  -6   6   1  338.68   42.14
  -4   6   1    4.89   11.52
  -2   6   1   -2.17    7.60
   0   6   1    5.21    7.40
   2   6   1   -0.81    6.53
   4   6   1   33.24   12.40
   6   6   1  446.42   33.37
   8   6   1  194.94   37.42
  -8  -6   2   13.16   10.76
  -6  -6   2  429.55   33.12
  -4  -6   2   24.93   12.00
  -2  -6   2   21.05   11.14
   0  -6   2    8.22    7.51
   2  -6   2  190.19   20.76
   4  -6   2    7.18    9.59
   6  -6   2    7.59   10.16
 -15  -5   2  398.18   45.69
 -13  -5   2    6.17    7.63
 -11  -5   2   34.92    9.92
  -9  -5   2   -4.04    6.27
  -7  -5   2    2.08    6.52
  -5  -5   2   18.76    8.88
  -3  -5   2  727.33   29.11
  -1  -5   2  295.69   19.12
   1  -5   2  678.91   28.60
   3  -5   2   -0.79    5.88
   5  -5   2   24.30    9.99
   7  -5   2   51.02   13.62
   9  -5   2  220.86   26.49
  11  -5   2  201.12   38.75
 -18  -4   2  246.76   30.18
 -16  -4   2  187.44   25.35
 -14  -4   2  139.88   16.65
 -12  -4   2   44.19    9.63
 -10  -4   2   44.79   11.52
  -8  -4   2   45.80   11.45
  -6  -4   2  823.35   35.02
  -4  -4   2   86.87   11.23
  -2  -4   2   89.08   11.25
   0  -4   2   25.62    8.45
   2  -4   2  384.83   23.81
   4  -4   2    1.19    5.31
   6  -4   2   25.48    7.02
   8  -4   2  264.68   17.49
  10  -4   2  378.87   21.55
  12  -4   2  298.01   25.53
  14  -4   2  302.91   31.82
  16  -4   2   20.40   11.90
 -21  -3   2    5.32    8.99
 -19  -3   2   28.64   11.69
 -17  -3   2   10.78    8.32
 -15  -3   2  535.30   31.23
 -13  -3   2   10.86    5.32
 -11  -3   2   78.40   10.78
  -9  -3   2    3.17    5.14
  -7  -3   2    4.56    3.27
  -5  -3   2   36.14    6.39
  -3  -3   2 1509.40   30.78
  -1  -3   2  592.53   16.57
   1  -3   2 1331.28   27.27
   3  -3   2    8.57    4.00
   5  -3   2   61.03    8.50
   7  -3   2  117.24   12.35
   9  -3   2  358.76   18.45
  11  -3   2  378.41   19.92
  13  -3   2    1.77    6.15
  15  -3   2  466.67   31.60
  17  -3   2  305.03   31.67
 -22  -2   2    3.29    9.55
 -20  -2   2  321.45   21.65
 -18  -2   2  368.82   27.05
 -16  -2   2  264.51   21.67
 -14  -2   2  219.38   20.11
 -12  -2   2   70.17    9.11
 -10  -2   2   75.51    9.01
  -8  -2   2   85.88   10.85
  -6  -2   2 1764.84   25.93
  -4  -2   2  150.13    8.31
  -2  -2   2  118.52    6.31
   0  -2   2   60.12    6.10
   2  -2   2  699.44   11.03
   4  -2   2    3.72    2.36
   6  -2   2   50.69    6.45
   8  -2   2  440.59   16.71
  10  -2   2  567.83   20.61
  12  -2   2  491.92   21.00
  14  -2   2  436.36   26.81
  16  -2   2    6.24    7.23
  18  -2   2   59.64   21.60
 -23  -1   2  173.80   25.57
 -21  -1   2    1.64    7.58
 -19  -1   2   40.83    9.34
 -17  -1   2   22.27    6.80
 -15  -1   2  675.54   30.67
 -13  -1   2    9.84    5.51
 -11  -1   2   96.60    8.39
  -9  -1   2    1.12    2.21
  -7  -1   2    7.66    2.70
  -5  -1   2   82.46    4.81
  -3  -1   2 2293.95  119.01
  -1  -1   2  972.48   25.52
   1  -1   2 2025.39   37.41
   3  -1   2   29.95    4.13
   5  -1   2   86.82    7.22
   7  -1   2  168.63   12.13
   9  -1   2  538.36   18.57
  11  -1   2  564.35   20.75
  13  -1   2    3.73    4.21
  15  -1   2  691.04   26.53
  17  -1   2  453.63   30.03
  19  -1   2    2.22    7.52
  21  -1   2   26.08   17.05
 -22   0   2    8.52    8.73
 -20   0   2  397.48   22.50
 -18   0   2  402.64   20.92
 -16   0   2  285.48   16.42
 -14   0   2  217.28   13.30
 -12   0   2   66.01    8.17
 -10   0   2   76.78    7.80
  -8   0   2   67.17    7.04
  -6   0   2 2113.58   32.97
  -4   0   2  209.95   11.23
   0   0   2   86.63    5.69
   2   0   2 1018.94   15.59
   4   0   2    3.68    1.98
   6   0   2   54.54    5.87
   8   0   2  563.92   16.41
  10   0   2  646.24   16.65
  12   0   2  622.61   21.68
  14   0   2  499.02   27.61
  16   0   2   18.18    7.99
  18   0   2   95.47   17.51
  20   0   2   48.61   20.61
 -23   1   2  174.98   36.82
 -21   1   2    3.41   10.73
 -19   1   2   29.02   10.13
 -17   1   2   24.15    6.89
 -15   1   2  581.49   22.07
 -13   1   2   14.44    4.79
 -11   1   2   63.89    7.68
  -9   1   2    0.66    2.12
  -7   1   2    4.82    2.21
  -5   1   2   68.99    3.72
  -3   1   2 1801.79   32.99
  -1   1   2 1038.98   16.48
   1   1   2 2242.14   25.23
   3   1   2   30.86    3.89
   5   1   2   89.30    5.15
   7   1   2  169.25    8.38
   9   1   2  578.15   26.24
  11   1   2  548.18   20.09
  13   1   2    3.97    3.98
  15   1   2  654.69   32.60
  17   1   2  430.52   28.39
  19   1   2    9.65   12.77
 -22   2   2   -5.24   11.69
 -20   2   2  402.79   29.56
 -18   2   2  332.02   25.16
 -16   2   2  234.35   20.01
 -14   2   2  162.88   13.52
 -12   2   2   54.93    8.16
 -10   2   2   53.96    6.12
  -8   2   2   74.85    5.80
  -6   2   2 1439.77   51.25
  -4   2   2  132.08    7.86
  -2   2   2  131.57    6.31
   0   2   2   64.78    4.91
   2   2   2  752.13   13.86
   4   2   2    4.90    2.72
   6   2   2   43.74    5.30
   8   2   2  455.22   14.15
  10   2   2  564.48   20.55
  12   2   2  498.96   20.93
  14   2   2  376.05   25.29
  16   2   2   11.63    7.60
  18   2   2   56.48   20.68
 -19   3   2   49.77   13.93
 -17   3   2   18.79    9.37
 -15   3   2  499.01   29.84
 -13   3   2   14.68    7.42
 -11   3   2   61.01    9.16
  -9   3   2   -0.59    2.75
  -7   3   2    3.34    3.31
  -5   3   2   41.49    6.72
  -3   3   2 1409.55   29.30
  -1   3   2  569.21   15.04
   1   3   2 1344.11   23.50
   3   3   2   10.71    3.42
   5   3   2   53.22    6.40
   7   3   2  116.21   11.65
   9   3   2  383.10   23.57
  11   3   2  373.45   24.81
  13   3   2   -0.77    5.49
  15   3   2  437.46   30.37
  17   3   2  310.72   38.17
 -18   4   2  213.00   27.68
 -16   4   2  143.53   22.21
 -14   4   2  116.74   19.32
 -12   4   2   28.39   10.11
 -10   4   2   36.85   10.21
  -8   4   2   41.02    8.10
  -6   4   2  729.33   25.25
  -4   4   2   72.73    9.81
  -2   4   2   68.31    9.35
   0   4   2   34.46    9.00
   2   4   2  372.73   17.52
   4   4   2    3.47    3.93
   6   4   2   28.38    7.10
   8   4   2  257.13   17.32
  10   4   2  334.15   24.88
  12   4   2  296.55   26.55
  14   4   2  214.21   37.55
  16   4   2    5.40    9.55
 -15   5   2  353.97   32.91
 -13   5   2    4.27    7.98
 -11   5   2   24.23   10.27
  -9   5   2   -1.88    5.78
  -7   5   2    0.93    7.97
  -5   5   2    9.39    6.32
  -3   5   2  616.83   33.17
  -1   5   2  246.56   23.15
   1   5   2  591.29   32.75
   3   5   2    3.93    6.05
   5   5   2    8.17    7.23
   7   5   2   50.05   13.18
   9   5   2  212.47   37.78
  11   5   2  188.11   36.66
  -8   6   2   26.54   17.92
  -6   6   2  354.02   43.34
  -4   6   2   57.17   21.42
  -2   6   2   26.09   11.60
   0   6   2   10.19    8.94
   2   6   2  178.53   24.99
   4   6   2    7.10    9.08
   6   6   2    9.23    9.14
  -8  -6   3  134.46   33.14
  -6  -6   3  112.84   30.00
  -4  -6   3  380.91   44.31
  -2  -6   3    4.90    8.84
   0  -6   3  452.71   33.30
   2  -6   3   67.39   13.87
   4  -6   3  251.80   44.16
 -15  -5   3   32.17   18.91
 -13  -5   3    6.35    7.10
 -11  -5   3  403.72   30.80
  -9  -5   3  602.30   36.10
  -7  -5   3   19.41    9.16
  -5  -5   3   36.76   11.51
  -3  -5   3   32.52    9.04
  -1  -5   3   15.57    6.82
   1  -5   3   56.98   13.94
   3  -5   3   32.49   11.26
   5  -5   3  761.78   40.46
   7  -5   3  135.07   21.25
   9  -5   3  176.01   24.27
 -18  -4   3  172.93   25.49
 -16  -4   3   36.33   12.39
 -14  -4   3  325.00   22.13
 -12  -4   3  505.74   25.07
 -10  -4   3   14.89    7.33
  -8  -4   3  201.99   22.21
  -6  -4   3  232.43   21.24
  -4  -4   3  718.71   25.82
  -2  -4   3   28.22    8.64
   0  -4   3  893.65   36.24
   2  -4   3  162.16   19.44
   4  -4   3  484.66   28.44
   6  -4   3    4.67    4.76
   8  -4   3   34.07    8.63
  10  -4   3  157.87   17.56
  12  -4   3   19.40    8.03
  14  -4   3  143.26   22.68
 -21  -3   3   36.81   14.37
 -19  -3   3   51.42   14.68
 -17  -3   3   84.45   16.69
 -15  -3   3   42.84   11.65
 -13  -3   3   10.95    5.62
 -11  -3   3  628.66   24.25
  -9  -3   3 1168.62   38.34
  -7  -3   3   20.48    7.16
  -5  -3   3   60.21    8.26
  -3  -3   3   93.64   12.43
  -1  -3   3   34.17    5.90
   1  -3   3  151.93   10.99
   3  -3   3   48.93    7.83
   5  -3   3 1343.53   33.33
   7  -3   3  245.20   15.57
   9  -3   3  253.53   17.43
  11  -3   3   44.43   11.60
  13  -3   3    3.76    5.64
  15  -3   3  166.43   24.06
  17  -3   3  263.41   31.04
 -22  -2   3   10.16    7.47
 -20  -2   3  214.71   21.46
 -18  -2   3  217.84   25.13
 -16  -2   3   44.58   11.67
 -14  -2   3  489.67   27.11
 -12  -2   3  830.64   28.26
 -10  -2   3   38.69    6.81
  -8  -2   3  435.07   19.95
  -6  -2   3  401.04   10.23
  -4  -2   3 1254.92   29.50
  -2  -2   3   36.28    5.08
   0  -2   3 1578.15   34.18
   2  -2   3  324.44   11.06
   4  -2   3  807.95   27.83
   6  -2   3    1.58    3.06
   8  -2   3   58.36    8.34
  10  -2   3  237.81   19.09
  12  -2   3   30.43    9.54
  14  -2   3  214.82   24.34
  16  -2   3   12.18    8.49
  18  -2   3   29.74   17.39
 -23  -1   3    5.56    9.07
 -21  -1   3   65.37   12.08
 -19  -1   3   61.75   10.77
 -17  -1   3   99.91   12.55
 -15  -1   3   66.88   12.07
 -13  -1   3   18.17    7.04
 -11  -1   3  943.46   23.55
  -9  -1   3 1813.85   31.29
  -7  -1   3   42.32    5.34
  -5  -1   3   92.54    7.74
  -1  -1   3   52.04    9.48
   1  -1   3  275.39    8.51
   3  -1   3   68.20    4.12
   5  -1   3 2006.98   39.22
   7  -1   3  368.37   15.49
   9  -1   3  410.36   17.67
  11  -1   3   75.30   10.42
  13  -1   3    3.59    4.48
  15  -1   3  268.70   18.08
  17  -1   3  362.79   28.19
  19  -1   3   69.57   16.22
 -22   0   3   10.76    8.78
 -20   0   3  237.42   25.99
 -18   0   3  254.87   17.83
 -16   0   3   47.81    8.47
 -14   0   3  495.99   24.56
 -12   0   3  800.09   31.02
 -10   0   3   27.19    4.92
  -8   0   3  475.34   17.83
  -6   0   3  458.04   21.36
  -4   0   3 1543.70   35.90
  -2   0   3   17.66    5.11
   0   0   3 2066.83  175.09
   2   0   3  468.19   12.84
   4   0   3 1122.03   20.84
   6   0   3   -0.15    2.17
   8   0   3   73.38    8.08
  10   0   3  309.31   15.91
  12   0   3   34.50    7.45
  14   0   3  222.64   21.42
  16   0   3    6.66    7.16
  18   0   3   33.35   12.13
  20   0   3  230.88   29.05
 -23   1   3   -6.59    6.92
 -21   1   3   71.02   15.75
 -19   1   3   89.29   15.64
 -17   1   3  112.33   16.60
 -15   1   3   51.91   10.92
 -13   1   3   13.24    4.75
 -11   1   3  609.74   23.21
  -9   1   3  994.85   25.86
  -7   1   3   21.61    3.21
  -5   1   3   57.67    5.84
  -3   1   3  114.61    6.35
  -1   1   3   53.39    5.61
   1   1   3  267.01    9.57
   3   1   3   86.83    5.75
   5   1   3 2114.73   39.06
   7   1   3  376.75   15.48
   9   1   3  405.30   17.20
  11   1   3   64.45    9.09
  13   1   3    2.63    4.89
  15   1   3  250.49   23.57
  17   1   3  345.11   28.52
  19   1   3   39.59   19.41
 -22   2   3    7.44    9.11
 -20   2   3  167.85   23.30
 -18   2   3  199.86   23.80
 -16   2   3   25.42    7.08
 -14   2   3  335.10   17.82
 -12   2   3  548.77   22.76
 -10   2   3   24.96    5.87
  -8   2   3  308.29   13.96
  -6   2   3  335.83   13.97
  -4   2   3 1241.12   25.29
  -2   2   3   41.64    4.39
   0   2   3 1588.89   28.08
   2   2   3  337.33   13.33
   4   2   3  854.63   21.19
   6   2   3    0.39    3.04
   8   2   3   58.54    8.54
  10   2   3  257.13   15.29
  12   2   3   38.46    8.15
  14   2   3  169.06   20.88
  16   2   3    7.59   11.25
  18   2   3   25.53   16.14
 -21   3   3   40.23   13.72
 -19   3   3   54.03   14.79
 -17   3   3   78.38   15.68
 -15   3   3   33.61   10.19
 -13   3   3    7.17    4.65
 -11   3   3  506.06   21.24
  -9   3   3  949.74   27.35
  -7   3   3   28.89    6.26
  -5   3   3   66.25    8.33
  -3   3   3   81.46    7.56
  -1   3   3   29.02    5.96
   1   3   3  159.84   11.46
   3   3   3   52.27    7.93
   5   3   3 1476.43   29.59
   7   3   3  266.67   19.96
   9   3   3  275.96   21.34
  11   3   3   37.29   10.79
  13   3   3    0.26    6.03
  15   3   3  163.16   22.98
 -18   4   3  121.47   20.97
 -16   4   3   18.25    9.87
 -14   4   3  213.18   25.10
 -12   4   3  416.66   27.66
 -10   4   3   22.93    6.89
  -8   4   3  215.17   15.46
  -6   4   3  201.41   19.15
  -4   4   3  647.22   30.77
  -2   4   3   18.58    5.62
   0   4   3  860.18   27.30
   2   4   3  169.83   14.09
   4   4   3  504.91   22.10
   6   4   3    1.71    5.33
   8   4   3   36.00   10.96
  10   4   3  158.99   21.28
  12   4   3   21.69   10.00
  14   4   3  131.66   21.85
 -13   5   3    4.43   11.67
 -11   5   3  305.35   45.24
  -9   5   3  528.22   48.41
  -7   5   3   12.48    8.16
  -5   5   3   16.73    8.42
  -3   5   3   41.94   11.80
  -1   5   3   12.28    7.48
   1   5   3   42.81   11.44
   3   5   3   19.27    9.05
   5   5   3  746.31   38.44
   7   5   3  124.34   29.07
   9   5   3  119.95   30.39
  -6   6   3   75.30   25.32
  -4   6   3  295.24   31.54
  -2   6   3   13.22    9.46
   0   6   3  436.04   46.71
   2   6   3   49.08   14.67
  -4  -6   4   46.77   21.33
  -2  -6   4  133.52   32.63
   0  -6   4  148.19   23.91
 -13  -5   4   23.31    9.85
 -11  -5   4  208.60   26.55
  -9  -5   4   67.64   15.85
  -7  -5   4   36.79   12.03
  -5  -5   4  330.25   26.96
  -3  -5   4   -1.58    4.86
  -1  -5   4  384.22   28.32
   1  -5   4    0.96    6.57
   3  -5   4   -1.71    6.47
   5  -5   4   31.29   12.19
   7  -5   4   -5.77    7.31
   9  -5   4    8.26   15.33
 -18  -4   4   59.21   16.55
 -16  -4   4  146.64   22.76
 -14  -4   4  177.92   23.90
 -12  -4   4   20.83    7.65
 -10  -4   4   93.74   16.21
  -8  -4   4    9.80    6.88
  -6  -4   4  829.50   37.32
  -4  -4   4  103.52   12.66
  -2  -4   4  271.10   21.01
   0  -4   4  234.83   19.97
   2  -4   4  187.71   21.77
   4  -4   4   46.14   11.43
   6  -4   4  228.92   25.51
   8  -4   4  224.16   20.74
  10  -4   4   13.90    7.55
  12  -4   4  273.61   25.00
 -21  -3   4  318.36   48.42
 -19  -3   4  137.61   22.67
 -17  -3   4  350.45   40.01
 -15  -3   4  236.19   26.00
 -13  -3   4   47.65   11.64
 -11  -3   4  346.01   22.45
  -9  -3   4  154.75   17.92
  -7  -3   4   46.16    9.99
  -5  -3   4  576.01   21.06
  -3  -3   4   -0.12    3.72
  -1  -3   4  675.55   28.76
   1  -3   4    2.40    3.41
   3  -3   4   -0.93    3.36
   5  -3   4   95.97   14.46
   7  -3   4    1.86    4.77
   9  -3   4   12.51    7.45
  11  -3   4  609.92   35.12
  13  -3   4   -1.50    6.71
  15  -3   4   87.56   18.78
 -22  -2   4  197.15   21.64
 -20  -2   4   41.15   10.42
 -18  -2   4   85.90   16.71
 -16  -2   4  207.00   23.35
 -14  -2   4  276.48   21.23
 -12  -2   4   40.95    9.66
 -10  -2   4  181.73   12.04
  -8  -2   4    8.96    5.19
  -6  -2   4 1294.59   28.77
  -4  -2   4  170.66    9.50
  -2  -2   4  450.78   15.87
   0  -2   4  398.34   15.28
   2  -2   4  306.56   12.75
   4  -2   4   90.83   12.75
   6  -2   4  371.83   22.28
   8  -2   4  379.91   23.93
  10  -2   4   25.54    9.25
  12  -2   4  424.32   28.38
  14  -2   4    2.65    7.34
  16  -2   4  328.16   30.46
 -23  -1   4    7.41    9.12
 -21  -1   4  412.51   30.77
 -19  -1   4  179.15   18.16
 -17  -1   4  537.18   28.89
 -15  -1   4  300.91   20.90
 -13  -1   4   52.14   10.35
 -11  -1   4  468.71   22.23
  -9  -1   4  235.90   11.18
  -7  -1   4  110.49    9.86
  -1  -1   4 1116.66   26.74
   1  -1   4    3.44    2.22
   3  -1   4    0.11    2.98
   5  -1   4  143.59   10.80
   7  -1   4    4.24    3.62
   9  -1   4   13.22    5.34
  11  -1   4  883.35   29.67
  13  -1   4   -0.80    4.19
  15  -1   4  104.49   14.51
  17  -1   4   26.91   11.65
 -24   0   4   77.81   25.30
 -22   0   4  217.53   26.72
 -20   0   4   42.06   12.28
 -18   0   4   75.50   14.41
 -16   0   4  194.09   19.31
 -14   0   4  294.88   15.47
 -12   0   4   48.21    7.69
 -10   0   4  205.64   13.26
  -8   0   4   14.98    3.87
  -6   0   4 1363.94   39.92
  -4   0   4  170.30   17.58
  -2   0   4  477.74   50.63
   0   0   4  486.90   23.64
   2   0   4  414.62    8.82
   4   0   4  129.70    9.24
   6   0   4  526.71   23.84
   8   0   4  467.52   24.32
  10   0   4   28.70    8.45
  12   0   4  493.27   22.92
  14   0   4   13.06    6.84
  16   0   4  311.02   26.74
  18   0   4   19.99   11.29
 -23   1   4   12.51   10.31
 -21   1   4  371.25   29.37
 -19   1   4  135.46   19.80
 -17   1   4  449.66   27.67
 -15   1   4  236.49   19.13
 -13   1   4   33.12    8.47
 -11   1   4  279.12   26.56
  -9   1   4  121.50   11.90
  -7   1   4   64.23    7.21
  -5   1   4  550.00   26.41
  -3   1   4    1.20    1.94
  -1   1   4  985.46   20.80
   1   1   4    4.62    2.50
   3   1   4    1.36    2.75
   5   1   4  151.03   10.81
   7   1   4    1.77    3.10
   9   1   4   13.54    5.00
  11   1   4  790.61   35.16
  13   1   4   -0.58    5.32
  15   1   4  112.38   18.72
  17   1   4   15.13    9.90
 -22   2   4  174.86   25.38
 -20   2   4   43.45   12.81
 -18   2   4   51.71   10.38
 -16   2   4  145.24   15.52
 -14   2   4  187.46   15.36
 -12   2   4   23.22    6.18
 -10   2   4  117.57   11.72
  -8   2   4    9.53    3.95
  -6   2   4 1077.51   24.54
  -4   2   4  153.92    8.52
  -2   2   4  488.20   17.22
   0   2   4  401.05   15.46
   2   2   4  347.57   14.36
   4   2   4   97.70   13.21
   6   2   4  409.46   18.26
   8   2   4  400.47   19.11
  10   2   4   24.19    7.02
  12   2   4  427.39   22.09
  14   2   4    1.57    8.35
  16   2   4  277.70   44.22
 -21   3   4  262.94   31.70
 -19   3   4  113.05   20.47
 -17   3   4  289.36   25.07
 -15   3   4  155.86   16.01
 -13   3   4   33.74    7.88
 -11   3   4  279.95   16.56
  -9   3   4  121.49   12.28
  -7   3   4   49.30   10.25
  -5   3   4  547.54   21.04
  -3   3   4    0.57    2.80
  -1   3   4  673.61   22.78
   1   3   4   -1.01    2.95
   3   3   4   -0.22    3.26
   5   3   4   93.41   11.04
   7   3   4   -0.21    3.81
   9   3   4    4.76    6.04
  11   3   4  593.50   34.13
  13   3   4   -0.14    6.81
 -18   4   4   38.90   13.67
 -16   4   4  108.76   27.44
 -14   4   4  114.41   27.19
 -12   4   4   13.94    8.04
 -10   4   4   75.36   14.07
  -8   4   4    5.98    4.96
  -6   4   4  685.87   26.04
  -4   4   4   86.78   11.52
  -2   4   4  268.83   16.58
   0   4   4  262.56   17.18
   2   4   4  206.96   15.68
   4   4   4   60.26   12.83
   6   4   4  239.96   25.25
   8   4   4  208.61   24.26
  10   4   4   19.28   10.05
  12   4   4  270.86   30.47
 -13   5   4   32.80   17.92
 -11   5   4  157.06   33.36
  -9   5   4   57.57   14.24
  -7   5   4   29.90   11.01
  -5   5   4  301.07   25.13
  -3   5   4    5.90    6.92
  -1   5   4  337.40   26.48
   1   5   4   -0.33    5.93
   3   5   4    3.36    9.73
   5   5   4   29.61   15.32
   7   5   4    5.69   12.45
   9   5   4    2.10   11.88
  -4   6   4   39.45   14.12
  -2   6   4  106.05   20.45
   0   6   4  129.30   22.44
 -11  -5   5  270.32   30.60
  -9  -5   5    6.74    8.54
  -7  -5   5  197.92   25.71
  -5  -5   5  221.82   26.90
  -3  -5   5    5.61    7.58
  -1  -5   5  312.40   26.79
   1  -5   5  406.34   30.89
   3  -5   5   40.87   13.64
   5  -5   5  122.92   22.04
 -16  -4   5   21.58   10.99
 -14  -4   5  135.83   21.42
 -12  -4   5   40.28   11.87
 -10  -4   5  651.08   35.25
  -8  -4   5  116.18   18.13
  -6  -4   5   35.01   10.50
  -4  -4   5   23.15    8.96
  -2  -4   5    2.77    5.60
   0  -4   5   79.93   14.99
   2  -4   5  128.00   19.20
   4  -4   5   29.55   10.86
   6  -4   5  628.78   36.95
   8  -4   5  124.66   16.56
  10  -4   5   23.49    8.92
  12  -4   5   36.78   14.01
 -19  -3   5   80.22   18.08
 -17  -3   5   16.78   10.07
 -15  -3   5  374.57   27.93
 -13  -3   5    9.64    6.92
 -11  -3   5  456.59   26.47
  -9  -3   5   28.50    8.77
  -7  -3   5  428.83   24.95
  -5  -3   5  439.33   23.57
  -3  -3   5   11.20    6.01
  -1  -3   5  605.45   29.31
   1  -3   5  699.58   25.14
   3  -3   5   71.20   12.99
   5  -3   5  197.16   21.71
   7  -3   5   88.60   15.74
   9  -3   5   60.90   14.07
  11  -3   5    3.92    7.79
  13  -3   5  109.76   20.57
 -22  -2   5  149.68   34.17
 -20  -2   5   12.55    7.37
 -18  -2   5   83.43   15.90
 -16  -2   5   20.70    8.68
 -14  -2   5  227.83   20.85
 -12  -2   5   74.40   13.17
 -10  -2   5  961.38   27.33
  -8  -2   5  181.99   14.78
  -6  -2   5   82.11    8.73
  -4  -2   5   29.42    5.77
  -2  -2   5   -1.73    2.27
   0  -2   5  126.20   12.99
   2  -2   5  197.63   17.02
   4  -2   5   79.13   13.05
   6  -2   5  991.97   38.65
   8  -2   5  232.37   22.07
  10  -2   5   54.11   13.13
  12  -2   5   36.38   11.74
  14  -2   5  356.56   29.52
  16  -2   5    9.26   14.30
 -23  -1   5   27.27   15.82
 -21  -1   5   14.91    9.42
 -19  -1   5   82.13   16.10
 -17  -1   5    4.38    4.87
 -15  -1   5  471.97   24.85
 -13  -1   5    6.89    5.43
 -11  -1   5  634.74   26.48
  -9  -1   5   42.88    6.73
  -7  -1   5  646.19   33.41
  -1  -1   5 1003.66   22.45
   1  -1   5 1180.75   23.89
   3  -1   5  127.05   14.30
   5  -1   5  321.41   19.65
   7  -1   5  145.89   14.19
   9  -1   5  110.83   13.37
  11  -1   5   12.82    5.88
  13  -1   5  168.69   18.28
  15  -1   5  317.32   29.57
 -22   0   5  162.21   24.07
 -20   0   5   13.29    8.43
 -18   0   5   89.61   16.11
 -16   0   5   18.58    7.81
 -14   0   5  187.18   18.36
 -12   0   5   48.99   10.16
 -10   0   5  850.14   36.59
  -8   0   5  186.84   12.57
  -6   0   5   83.70    9.86
  -4   0   5   32.61    6.26
  -2   0   5   -0.18    2.11
   0   0   5  186.08    9.55
   2   0   5  278.37   13.22
   4   0   5  116.75    9.91
   6   0   5 1344.34   41.52
   8   0   5  305.37   21.64
  10   0   5   84.11   14.57
  12   0   5   58.53   10.86
  14   0   5  412.73   29.53
  16   0   5    0.03    7.90
 -23   1   5   32.73   12.94
 -21   1   5   25.44   11.16
 -19   1   5   89.68   16.48
 -17   1   5    8.06    6.87
 -15   1   5  389.88   24.74
 -13   1   5    1.56    4.22
 -11   1   5  344.69   23.55
  -9   1   5   21.05    5.26
  -7   1   5  403.21   23.94
  -5   1   5  464.40   38.90
  -3   1   5   18.91    4.56
  -1   1   5  959.95   22.44
   1   1   5 1102.48   33.22
   3   1   5  134.62   12.26
   5   1   5  330.43   16.29
   7   1   5  154.57   13.17
   9   1   5  110.12   16.69
  11   1   5   10.43    7.30
  13   1   5  162.61   22.25
  15   1   5  261.18   29.56
  17   1   5   98.10   27.91
 -22   2   5  158.00   24.90
 -20   2   5    3.16    6.19
 -18   2   5   48.47   10.36
 -16   2   5   22.87    7.41
 -14   2   5  125.53   15.40
 -12   2   5   40.67    7.99
 -10   2   5  593.83   25.46
  -8   2   5  139.66   15.90
  -6   2   5   78.41   12.07
  -4   2   5   35.19    6.79
  -2   2   5    1.84    3.12
   0   2   5  146.24   11.32
   2   2   5  215.09   16.76
   4   2   5   91.06   11.28
   6   2   5 1152.72   33.00
   8   2   5  273.86   18.09
  10   2   5   52.97    9.86
  12   2   5   36.14   11.31
  14   2   5  333.52   41.58
 -21   3   5    4.81   15.96
 -19   3   5   51.44   14.85
 -17   3   5    3.90    5.56
 -15   3   5  226.96   22.51
 -13   3   5    1.96    5.53
 -11   3   5  345.01   24.14
  -9   3   5   14.51    7.18
  -7   3   5  344.90   22.71
  -5   3   5  408.23   19.47
  -3   3   5   13.07    5.10
  -1   3   5  633.01   23.56
   1   3   5  775.46   33.96
   3   3   5   87.54   14.26
   5   3   5  272.55   17.45
   7   3   5  106.10   13.52
   9   3   5   84.98   16.18
  11   3   5   15.04    9.27
  13   3   5  110.71   29.82
 -16   4   5   22.04   15.03
 -14   4   5   89.01   17.10
 -12   4   5   31.56   11.15
 -10   4   5  467.40   30.17
  -8   4   5  107.62   13.47
  -6   4   5   45.38    9.20
  -4   4   5   13.01    6.02
  -2   4   5    1.17    4.11
   0   4   5   91.98   12.52
   2   4   5  112.78   17.61
   4   4   5   41.64   11.62
   6   4   5  647.01   36.61
   8   4   5  160.65   22.81
  10   4   5   33.94   12.60
 -11   5   5  230.39   28.29
  -9   5   5   12.17    9.14
  -7   5   5  177.61   24.00
  -5   5   5  214.89   26.01
  -3   5   5    2.63    6.92
  -1   5   5  368.28   28.48
   3   5   5   44.64   19.42
   5   5   5  135.61   31.44
 -11  -5   6   18.11   16.60
  -9  -5   6   62.64   16.11
  -7  -5   6  286.88   32.31
  -5  -5   6  301.67   32.66
  -3  -5   6    7.91    9.08
  -1  -5   6   14.89   10.25
   1  -5   6  345.15   32.39
   3  -5   6    3.13   12.65
 -16  -4   6  309.45   30.79
 -14  -4   6   13.81   10.37
 -12  -4   6  173.98   34.35
 -10  -4   6   73.98   15.61
  -8  -4   6   20.92    9.75
  -6  -4   6  196.53   23.75
  -4  -4   6  694.96   35.72
  -2  -4   6  111.69   18.39
   0  -4   6   49.35   13.22
   2  -4   6  145.69   21.82
   4  -4   6   38.07   12.36
   6  -4   6    1.86    7.26
   8  -4   6   44.44   14.99
 -19  -3   6   38.81   14.18
 -17  -3   6    2.32    7.45
 -15  -3   6  100.05   18.32
 -13  -3   6  392.40   28.12
 -11  -3   6   24.98   13.66
  -9  -3   6  137.07   18.01
  -7  -3   6  447.39   26.96
  -5  -3   6  514.93   27.23
  -3  -3   6   10.35    6.97
  -1  -3   6    9.86    6.38
   1  -3   6  546.32   38.48
   3  -3   6    8.94    6.38
   5  -3   6  122.56   18.32
   7  -3   6    1.79    6.09
   9  -3   6  499.92   34.16
  11  -3   6   29.58   12.25
 -20  -2   6  492.53   36.35
 -18  -2   6  171.80   23.25
 -16  -2   6  438.27   29.13
 -14  -2   6   17.23    8.06
 -12  -2   6  349.77   23.73
 -10  -2   6  128.18   13.15
  -8  -2   6   53.41   10.61
  -6  -2   6  289.95   14.85
  -4  -2   6  922.94   68.60
  -2  -2   6  162.73   15.29
   0  -2   6   74.22   12.29
   2  -2   6  271.14   20.28
   4  -2   6   72.99   13.29
   6  -2   6    3.79    5.54
   8  -2   6   77.15   15.17
  10  -2   6  200.98   24.96
  12  -2   6  138.77   22.75
  14  -2   6   18.35   16.69
 -21  -1   6  235.26   28.97
 -19  -1   6   28.93   10.83
 -17  -1   6    8.55    6.78
 -15  -1   6   93.33   15.41
 -13  -1   6  545.55   27.14
 -11  -1   6   41.74    9.55
  -9  -1   6  159.75   11.33
  -3  -1   6   16.97    5.78
  -1  -1   6   38.57    6.49
   1  -1   6  923.14   32.61
   3  -1   6   18.67    6.88
   5  -1   6  180.10   17.58
   7  -1   6   -1.33    4.11
   9  -1   6  653.65   28.15
  11  -1   6   41.61   12.84
  13  -1   6  276.38   30.77
  15  -1   6   89.83   28.14
 -22   0   6    0.63    7.81
 -20   0   6  555.35   35.32
 -18   0   6  150.52   21.28
 -16   0   6  413.24   27.24
 -14   0   6   20.60    7.89
 -12   0   6  248.03   18.94
 -10   0   6   77.67   12.16
  -8   0   6   29.40    7.28
  -6   0   6  338.11   16.23
  -4   0   6 1281.15   41.73
  -2   0   6  245.18   13.31
   0   0   6  101.75   12.70
   2   0   6  388.89   17.13
   4   0   6   91.56   13.98
   6   0   6    0.16    4.52
   8   0   6   89.90   15.45
  10   0   6  217.48   25.03
  12   0   6  138.59   17.31
  14   0   6   16.45   10.70
 -21   1   6  251.89   29.43
 -19   1   6   29.35   11.18
 -17   1   6   10.71    7.16
 -15   1   6  108.50   15.94
 -13   1   6  431.61   24.14
 -11   1   6   24.70    6.37
  -9   1   6  105.01   11.01
  -7   1   6  496.59   24.22
  -5   1   6  690.54   26.95
  -3   1   6   18.79    5.07
  -1   1   6   32.49    8.14
   1   1   6  938.02   33.72
   3   1   6   24.58    6.39
   5   1   6  166.44   14.26
   7   1   6   -0.89    4.87
   9   1   6  679.48   36.09
  11   1   6   37.63   12.13
  13   1   6  278.78   43.82
  15   1   6   95.15   28.22
 -22   2   6    6.80   10.70
 -20   2   6  464.99   27.32
 -18   2   6  134.11   16.87
 -16   2   6  309.20   22.18
 -14   2   6   19.14    8.04
 -12   2   6  253.77   23.61
 -10   2   6  103.14   15.36
  -8   2   6   32.08    8.66
  -6   2   6  288.47   19.78
  -4   2   6 1127.41   30.69
  -2   2   6  224.65   18.08
   0   2   6   91.59   14.18
   2   2   6  276.74   20.65
   4   2   6   72.01   11.04
   6   2   6    2.88    4.64
   8   2   6   84.21   15.96
  10   2   6  196.67   24.54
  12   2   6  154.90   23.14
 -19   3   6   28.80   11.82
 -17   3   6    1.31    6.91
 -15   3   6   67.04   14.30
 -13   3   6  300.09   24.78
 -11   3   6   40.26   11.12
  -9   3   6   79.63   14.63
  -7   3   6  421.83   21.47
  -5   3   6  518.26   23.16
  -3   3   6   12.95    5.65
  -1   3   6   15.61    7.71
   1   3   6  607.31   32.49
   3   3   6    6.28    6.55
   5   3   6  156.18   16.85
   7   3   6   -3.65    4.93
   9   3   6  536.26   34.80
  11   3   6   56.86   22.04
 -16   4   6  181.78   25.82
 -14   4   6    9.46    8.82
 -12   4   6  127.65   20.56
 -10   4   6   66.03   12.06
  -8   4   6   23.99    8.26
  -6   4   6  187.75   18.64
  -4   4   6  747.20   36.07
  -2   4   6  110.30   17.31
   0   4   6   58.58   14.12
   2   4   6  155.33   21.86
   4   4   6   53.04   13.76
   6   4   6    1.19    7.60
   8   4   6   49.45   14.97
 -11   5   6   10.30    9.88
  -9   5   6   65.47   16.57
  -7   5   6  223.44   27.73
  -5   5   6  306.04   45.14
  -3   5   6    3.35   12.27
  -1   5   6    0.80    9.95
   1   5   6  317.06   47.64
  -1  -5   7  165.60   35.80
 -14  -4   7  132.66   22.65
 -12  -4   7   92.66   26.06
 -10  -4   7  581.60   36.20
  -8  -4   7  105.74   19.08
  -6  -4   7   31.21   11.60
  -4  -4   7   19.56   14.54
  -2  -4   7   47.09   13.39
   0  -4   7  230.07   27.26
   2  -4   7  171.32   24.58
   4  -4   7  195.30   27.08
 -17  -3   7  297.11   47.20
 -15  -3   7  108.98   19.33
 -13  -3   7  337.39   27.24
 -11  -3   7   29.23   15.21
  -9  -3   7   59.83   13.43
  -7  -3   7   39.04   11.53
  -5  -3   7    1.89    5.64
  -3  -3   7    1.92    5.64
  -1  -3   7  189.19   22.77
   1  -3   7    7.51    9.60
   3  -3   7  126.41   19.31
   5  -3   7    0.27    7.06
   7  -3   7  416.44   32.03
   9  -3   7   -3.65   10.41
 -20  -2   7   33.08   13.19
 -18  -2   7   18.40   10.32
 -16  -2   7   41.98   18.42
 -14  -2   7  204.89   23.62
 -12  -2   7  123.78   18.25
 -10  -2   7  879.19   37.08
  -8  -2   7  195.02   20.55
  -6  -2   7   40.84   10.18
  -4  -2   7   12.26    5.94
  -2  -2   7   61.59   12.02
   0  -2   7  339.04   25.50
   2  -2   7  296.62   22.95
   4  -2   7  364.20   26.57
   6  -2   7   13.70    8.51
   8  -2   7   -1.81    6.59
  10  -2   7   -0.14    8.10
 -21  -1   7    0.36    7.62
 -19  -1   7    7.34    8.13
 -17  -1   7  353.26   31.47
 -15  -1   7  129.53   18.97
 -13  -1   7  343.90   29.27
 -11  -1   7   55.61   11.70
  -9  -1   7   49.79    8.15
  -5  -1   7    0.61    4.17
  -3  -1   7    4.58    4.97
  -1  -1   7  360.56   22.36
   1  -1   7   17.02    7.08
   3  -1   7  215.73   20.04
   5  -1   7    3.08    4.66
   7  -1   7  564.77   34.03
   9  -1   7    6.03    7.73
  11  -1   7  112.40   20.85
 -22   0   7    8.34   14.93
 -20   0   7   66.97   16.08
 -18   0   7   13.54    8.74
 -16   0   7   34.55   10.25
 -14   0   7  153.13   19.73
 -12   0   7   92.80   14.25
 -10   0   7  735.54   30.55
  -8   0   7  171.48   18.41
  -6   0   7   45.60    9.64
  -4   0   7   14.86    6.66
  -2   0   7  112.67   14.40
   0   0   7  484.11   26.84
   2   0   7  392.67   25.02
   4   0   7  473.03   28.56
   6   0   7   13.61    8.04
   8   0   7    0.30    6.08
  10   0   7    2.89    6.26
  12   0   7    8.09    7.40
 -21   1   7   -0.38    6.96
 -19   1   7   14.15    7.68
 -17   1   7  379.47   23.11
 -15   1   7  134.43   19.79
 -13   1   7  344.77   24.62
 -11   1   7   37.06   10.13
  -9   1   7   34.81    9.31
  -7   1   7   47.89   10.31
  -5   1   7    4.22    3.81
  -3   1   7    5.07    5.40
  -1   1   7  372.05   23.30
   1   1   7   29.93    7.33
   3   1   7  226.60   21.79
   5   1   7    7.35    6.69
   7   1   7  567.85   34.07
   9   1   7    4.12    7.03
  11   1   7  140.98   22.86
 -20   2   7   63.43   16.67
 -18   2   7   21.34   10.46
 -16   2   7   27.56   10.34
 -14   2   7  106.79   17.64
 -12   2   7   76.00   14.96
 -10   2   7  697.63   34.36
  -8   2   7  141.52   18.36
  -6   2   7   47.84    9.05
  -4   2   7   15.45    7.73
  -2   2   7   97.14   15.51
   0   2   7  410.97   26.37
   2   2   7  366.01   20.90
   4   2   7  448.80   23.65
   6   2   7   19.49    9.52
   8   2   7    2.97    7.48
  10   2   7    4.32    8.65
  12   2   7    1.84   13.44
 -17   3   7  215.85   26.90
 -15   3   7   95.03   18.44
 -13   3   7  266.75   28.71
 -11   3   7   42.95   12.18
  -9   3   7   30.90    8.39
  -7   3   7   53.95   10.45
  -5   3   7   -0.21    5.60
  -3   3   7   -1.10    5.47
  -1   3   7  269.48   24.92
   1   3   7   14.65    8.55
   3   3   7  175.99   18.69
   5   3   7   -0.44    5.63
   7   3   7  471.68   32.48
 -14   4   7  100.91   20.01
 -12   4   7   65.20   12.72
 -10   4   7  561.93   35.31
  -8   4   7  100.67   14.97
  -6   4   7   22.65   10.00
  -4   4   7    8.64    7.99
  -2   4   7   67.71   14.97
   0   4   7  281.00   30.19
   2   4   7  242.29   28.50
   4   4   7  298.84   29.46
   6   4   7    3.30   12.39
 -10  -4   8  342.17   50.89
  -8  -4   8   17.90   10.53
  -6  -4   8  109.01   20.51
  -4  -4   8  155.62   34.40
  -2  -4   8   79.68   17.54
   0  -4   8   74.12   24.99
 -15  -3   8   -3.96   11.45
 -13  -3   8    1.79    7.82
 -11  -3   8  178.28   24.27
  -9  -3   8    5.05   10.07
  -7  -3   8  194.15   24.15
  -5  -3   8  749.96   55.51
  -3  -3   8  126.58   21.85
  -1  -3   8    3.40    7.31
   1  -3   8    5.46   11.71
   3  -3   8   71.33   23.89
   5  -3   8  184.26   25.43
 -18  -2   8    7.05    9.66
 -16  -2   8   10.07    8.76
 -14  -2   8   53.56   20.94
 -12  -2   8   28.84   15.46
 -10  -2   8  453.90   28.39
  -8  -2   8   49.00   16.92
  -6  -2   8   79.70   20.64
  -4  -2   8  224.87   25.01
  -2  -2   8  118.69   17.58
   0  -2   8  148.62   19.78
   2  -2   8   45.37   12.64
   4  -2   8   64.00   15.43
   6  -2   8  348.00   31.87
   8  -2   8   -4.80   10.69
 -19  -1   8  553.43   36.95
 -17  -1   8   28.44   11.13
 -15  -1   8    2.49    6.53
 -13  -1   8   -1.70    5.30
 -11  -1   8  201.51   20.24
  -9  -1   8    2.28    7.14
  -7  -1   8  251.11   27.95
  -5  -1   8 1206.30   59.90
  -3  -1   8  250.02   21.66
  -1  -1   8   14.59    7.50
   1  -1   8    6.77    6.20
   3  -1   8  118.68   27.17
   5  -1   8  212.83   25.88
   7  -1   8   51.32   14.54
   9  -1   8   17.30   11.29
 -20   0   8   19.99   11.04
 -18   0   8    6.49   10.59
 -16   0   8   16.84   12.77
 -14   0   8   41.89   17.03
 -12   0   8   18.62    7.81
 -10   0   8  417.07   26.26
  -8   0   8   46.60   10.97
  -6   0   8  206.86   19.96
  -4   0   8  329.26   22.61
  -2   0   8  152.42   19.75
   0   0   8  236.60   22.84
   2   0   8   86.47   15.95
   4   0   8   80.67   16.02
   6   0   8  412.70   30.39
   8   0   8   -0.56    7.52
  10   0   8  658.82   40.79
 -19   1   8  570.58   38.37
 -17   1   8   18.03    9.93
 -15   1   8    0.82    5.89
 -13   1   8    0.58    5.78
 -11   1   8  209.51   23.69
  -9   1   8    1.67    4.81
  -7   1   8  235.14   22.51
  -5   1   8 1098.03   42.94
  -3   1   8  212.31   20.70
  -1   1   8   25.96    9.11
   1   1   8   10.98    7.23
   3   1   8  158.55   22.17
   5   1   8  269.20   29.47
   7   1   8   39.34   13.18
   9   1   8   20.61   11.42
 -18   2   8    9.04    9.50
 -16   2   8   17.39    9.86
 -14   2   8   43.49   13.18
 -12   2   8   22.81    9.35
 -10   2   8  348.45   26.16
  -8   2   8   51.11   12.65
  -6   2   8  180.94   22.98
  -4   2   8  278.65   25.33
  -2   2   8  141.26   19.85
   0   2   8  185.87   23.06
   2   2   8   58.75   11.76
   4   2   8   67.57   15.84
   6   2   8  388.91   31.13
   8   2   8    0.47    8.96
 -15   3   8    1.40    7.70
 -13   3   8    0.45    7.53
 -11   3   8  176.16   24.30
  -9   3   8    4.10    5.88
  -7   3   8  192.05   24.55
  -5   3   8  807.95   59.17
  -3   3   8  149.49   21.65
  -1   3   8   15.37    8.76
   1   3   8    8.10    8.29
   3   3   8  111.15   16.09
   5   3   8  214.31   28.20
 -12   4   8   14.47   10.92
 -10   4   8  307.51   32.75
  -8   4   8   23.37   11.65
  -6   4   8  128.64   30.32
  -4   4   8  195.15   37.51
  -2   4   8   99.43   27.73
   0   4   8  127.86   22.66
 -13  -3   9  259.02   45.13
 -11  -3   9  422.74   46.99
  -9  -3   9  116.84   29.83
  -7  -3   9   56.94   14.84
  -5  -3   9  145.07   31.53
  -3  -3   9    7.29    9.11
  -1  -3   9   34.90   13.54
 -16  -2   9  726.20   43.92
 -14  -2   9   -1.28    7.23
 -12  -2   9   -2.38    9.44
  -6  -2   9   -0.95    9.88
  -4  -2   9   27.87   15.40
  -2  -2   9  266.91   25.50
   0  -2   9  252.07   28.18
   2  -2   9    0.94    7.54
   4  -2   9  130.65   31.69
 -17  -1   9    3.45   12.13
 -15  -1   9  112.32   29.38
 -13  -1   9  237.31   38.29
 -11  -1   9  434.92   29.34
  -9  -1   9  150.32   28.60
  -7  -1   9   84.69   22.12
  -5  -1   9  162.63   21.03
  -3  -1   9   35.67   15.91
  -1  -1   9   64.89   20.64
   1  -1   9  657.07   54.09
   3  -1   9   50.05   14.41
   5  -1   9   97.69   19.74
 -18   0   9   -5.39    9.85
 -16   0   9  891.87   46.08
 -14   0   9    0.21    5.93
 -12   0   9   -3.24    5.13
 -10   0   9   72.33   21.40
  -8   0   9   54.01   13.12
  -6   0   9    4.60    6.31
  -4   0   9   58.26   19.71
  -2   0   9  407.22   29.07
   0   0   9  345.06   27.44
   2   0   9    7.21    8.58
   4   0   9  164.84   23.70
   6   0   9   51.45   14.90
 -17   1   9    2.49    8.28
 -15   1   9  104.77   19.54
 -13   1   9  260.22   28.77
 -11   1   9  462.97   45.32
  -9   1   9  118.11   19.19
  -7   1   9   74.25   15.47
  -5   1   9  173.79   22.42
  -3   1   9   31.25   11.02
  -1   1   9   79.46   16.39
   1   1   9  694.45   39.88
   3   1   9   28.33   11.79
   5   1   9  155.88   24.62
 -16   2   9  740.15   61.56
 -14   2   9   -4.79    7.42
 -12   2   9   -0.21    6.98
 -10   2   9   50.79   13.81
  -8   2   9   60.90   15.40
  -6   2   9    1.02    6.89
  -4   2   9   65.28   15.01
  -2   2   9  351.55   29.95
   0   2   9  251.79   23.61
   2   2   9    7.17    8.66
   4   2   9  144.84   34.08
 -13   3   9  220.21   40.15
 -11   3   9  367.88   31.70
  -9   3   9   76.08   17.57
  -7   3   9   60.73   15.51
  -5   3   9  134.49   22.40
  -3   3   9   13.82   10.30
  -1   3   9   44.43   14.64
   1   3   9  512.07   36.55
  -4  -2  10  108.96   28.67
  -2  -2  10   20.33   16.35
 -15  -1  10    8.03   14.23
 -13  -1  10   94.04   27.19
  -7  -1  10   19.05   14.33
  -5  -1  10  356.62   40.72
  -3  -1  10    3.45   10.54
  -1  -1  10   -0.63   11.49
   1  -1  10    3.12   12.68
 -16   0  10   32.85   19.05
 -14   0  10    1.88   11.89
 -12   0  10   31.46   17.13
 -10   0  10  433.34   31.91
  -8   0  10  434.95   44.97
  -6   0  10   18.50   15.23
  -4   0  10  161.28   23.32
  -2   0  10   30.48   12.07
   0   0  10   26.11   11.90
   2   0  10   36.22   20.20
 -13   1  10   91.26   27.07
 -11   1  10   34.28   12.87
  -9   1  10  101.20   18.89
  -7   1  10   12.55    9.61
  -5   1  10  377.77   43.64
  -3   1  10    3.09    7.78
  -1   1  10   -2.03    7.51
   1   1  10    0.17   12.13
 -10   2  10  359.70   44.34
  -8   2  10  320.05   34.16
  -6   2  10   10.38    9.65
  -4   2  10  133.23   22.37
   0   0   0    0.00    0.00
;
_shelx_hkl_checksum    3353

